@<TRIPOS>MOLECULE
QDV
   78    81     1     0     0
SMALL
abcg2


@<TRIPOS>ATOM
      1 C10         -1.3740    -1.5470     0.0200 c3         1 QDV       0.025600
      2 C20          2.4520    -0.2530     0.6600 c          1 QDV       0.623100
      3 C30          7.6410     0.7580     0.3790 ca         1 QDV      -0.068000
      4 C40         -8.4670    -0.1480     0.3150 ca         1 QDV      -0.132000
      5 C02         -3.0040     3.5530    -0.4760 c3         1 QDV       0.226000
      6 C03         -3.3830     4.6230     0.5420 c3         1 QDV      -0.109100
      7 C04         -4.0040     3.5620    -1.6250 c3         1 QDV      -0.109100
      8 C06         -2.8440     1.1250    -0.2280 c          1 QDV       0.660100
      9 C09         -2.7930    -1.2390     0.4930 c3         1 QDV       0.160700
     10 C12          1.3620    -1.2240     0.2470 c3         1 QDV      -0.020700
     11 C13          1.7670    -2.6490     0.6510 c3         1 QDV      -0.020100
     12 C14          3.0990    -3.0300     0.0620 ca         1 QDV      -0.092300
     13 C15          3.2230    -3.3230    -1.2950 ca         1 QDV      -0.104500
     14 C16          4.4610    -3.6150    -1.8480 ca         1 QDV      -0.113500
     15 C17          5.5980    -3.6230    -1.0500 ca         1 QDV      -0.110000
     16 C18          5.4860    -3.3360     0.3040 ca         1 QDV      -0.113500
     17 C19          4.2450    -3.0390     0.8520 ca         1 QDV      -0.104500
     18 C23          4.3560     1.0460    -0.2060 c3         1 QDV       0.100000
     19 C24          5.5150     0.3450    -0.9190 c3         1 QDV      -0.056100
     20 C25          6.8090     1.0660    -0.6920 ca         1 QDV      -0.130300
     21 C26          7.2130     2.1040    -1.5270 ca         1 QDV       0.336900
     22 C28          9.1080     2.4950    -0.3330 ca         1 QDV       0.333900
     23 C29          8.8100     1.4790     0.5630 ca         1 QDV      -0.162000
     24 C31         -3.8200    -1.9090    -0.4350 c3         1 QDV      -0.019200
     25 C32         -5.2250    -1.7530     0.0430 cc         1 QDV      -0.138400
     26 C33         -5.8760    -2.5620     0.9330 cd         1 QDV      -0.164100
     27 C35         -7.3440    -0.9680     0.4230 ca         1 QDV      -0.049200
     28 C36         -6.1540    -0.7170    -0.2990 ca         1 QDV      -0.090800
     29 C37         -6.1050     0.3880    -1.1580 ca         1 QDV      -0.057000
     30 C38         -7.2160     1.2000    -1.2700 ca         1 QDV      -0.145000
     31 C39         -8.3860     0.9350    -0.5380 ca         1 QDV      -0.090000
     32 N08         -3.0360     0.1710     0.7040 ns         1 QDV      -0.496900
     33 N22          3.1330     0.2930    -0.3560 ns         1 QDV      -0.493900
     34 N27          8.3280     2.8050    -1.3610 nb         1 QDV      -0.664000
     35 N34         -7.1390    -2.0930     1.1640 na         1 QDV      -0.222700
     36 O05         -3.1030     2.3260     0.2910 os         1 QDV      -0.475100
     37 O07         -2.4870     0.9120    -1.3700 o          1 QDV      -0.567000
     38 O21          2.6760    -0.0330     1.8420 o          1 QDV      -0.590100
     39 S11         -0.1700    -0.6710     1.0570 ss         1 QDV      -0.360000
     40 H1          -1.2190    -2.6240     0.0980 h1         1 QDV       0.070700
     41 H2          -1.2250    -1.2570    -1.0200 h1         1 QDV       0.070700
     42 H4          -9.3700    -0.3540     0.8770 ha         1 QDV       0.111000
     43 H5          -1.4960     4.8000    -1.3550 hc         1 QDV       0.048700
     44 H6          -0.8680     3.6990    -0.1340 hc         1 QDV       0.048700
     45 H7          -1.2840     3.0970    -1.7460 hc         1 QDV       0.048700
     46 H8          -4.3870     4.4590     0.9370 hc         1 QDV       0.048700
     47 H9          -2.6820     4.6430     1.3790 hc         1 QDV       0.048700
     48 H10         -3.3670     5.6060     0.0700 hc         1 QDV       0.048700
     49 H11         -3.7370     2.8640    -2.4160 hc         1 QDV       0.048700
     50 H12         -5.0060     3.3170    -1.2700 hc         1 QDV       0.048700
     51 H13         -4.0420     4.5610    -2.0620 hc         1 QDV       0.048700
     52 H14         -2.9120    -1.6870     1.4820 h1         1 QDV       0.055700
     53 H15          1.1970    -1.1810    -0.8330 h1         1 QDV       0.070700
     54 H16          1.8050    -2.7120     1.7390 hc         1 QDV       0.065700
     55 H17          0.9910    -3.3400     0.3150 hc         1 QDV       0.065700
     56 H18          2.3420    -3.3250    -1.9270 ha         1 QDV       0.117000
     57 H19          4.5390    -3.8390    -2.9040 ha         1 QDV       0.113500
     58 H20          6.5640    -3.8520    -1.4800 ha         1 QDV       0.114000
     59 H21          6.3660    -3.3390     0.9360 ha         1 QDV       0.113500
     60 H22          4.1650    -2.8090     1.9080 ha         1 QDV       0.117000
     61 H23          4.5690     1.1440     0.8570 h1         1 QDV       0.064200
     62 H24          4.2260     2.0550    -0.6060 h1         1 QDV       0.064200
     63 H25          5.5860    -0.6840    -0.5590 hc         1 QDV       0.056200
     64 H26          5.3010     0.2930    -1.9900 hc         1 QDV       0.056200
     65 H27          6.5970     2.3760    -2.3810 h4         1 QDV       0.016100
     66 H28         10.0160     3.0770    -0.2180 h4         1 QDV       0.019100
     67 H29          9.4810     1.2590     1.3820 ha         1 QDV       0.124000
     68 H30         -3.7140    -1.5110    -1.4460 hc         1 QDV       0.058700
     69 H31         -3.5650    -2.9700    -0.4950 hc         1 QDV       0.058700
     70 H32         -5.5270    -3.4570     1.4250 h4         1 QDV       0.209000
     71 H33         -5.2100     0.6040    -1.7300 ha         1 QDV       0.127000
     72 H34         -7.1910     2.0550    -1.9330 ha         1 QDV       0.109000
     73 H35         -9.2410     1.5900    -0.6480 ha         1 QDV       0.109000
     74 H36         -3.3850     0.4520     1.6050 hn         1 QDV       0.334500
     75 H37          2.8740     0.0310    -1.2940 hn         1 QDV       0.311500
     76 H38         -7.8090    -2.5220     1.7780 hn         1 QDV       0.349000
     77 H3           7.3800    -0.0440     1.0600 ha         1 QDV       0.121000
     78 C01         -1.5770     3.7870    -0.9590 c3         1 QDV      -0.109100
@<TRIPOS>BOND
     1     1     9 1   
     2     1    39 1   
     3     1    40 1   
     4     1    41 1   
     5     2    10 1   
     6     2    33 1   
     7     2    38 2   
     8     3    20 ar  
     9     3    23 ar  
    10     3    77 1   
    11     4    27 ar  
    12     4    31 ar  
    13     4    42 1   
    14     5     6 1   
    15     5     7 1   
    16     5    36 1   
    17     5    78 1   
    18     6    46 1   
    19     6    47 1   
    20     6    48 1   
    21     7    49 1   
    22     7    50 1   
    23     7    51 1   
    24     8    32 1   
    25     8    36 1   
    26     8    37 2   
    27     9    24 1   
    28     9    32 1   
    29     9    52 1   
    30    10    11 1   
    31    10    39 1   
    32    10    53 1   
    33    11    12 1   
    34    11    54 1   
    35    11    55 1   
    36    12    13 ar  
    37    12    17 ar  
    38    13    14 ar  
    39    13    56 1   
    40    14    15 ar  
    41    14    57 1   
    42    15    16 ar  
    43    15    58 1   
    44    16    17 ar  
    45    16    59 1   
    46    17    60 1   
    47    18    19 1   
    48    18    33 1   
    49    18    61 1   
    50    18    62 1   
    51    19    20 1   
    52    19    63 1   
    53    19    64 1   
    54    20    21 ar  
    55    21    34 ar  
    56    21    65 1   
    57    22    23 ar  
    58    22    34 ar  
    59    22    66 1   
    60    23    67 1   
    61    24    25 1   
    62    24    68 1   
    63    24    69 1   
    64    25    26 2   
    65    25    28 1   
    66    26    35 1   
    67    26    70 1   
    68    27    28 ar  
    69    27    35 1   
    70    28    29 ar  
    71    29    30 ar  
    72    29    71 1   
    73    30    31 ar  
    74    30    72 1   
    75    31    73 1   
    76    32    74 1   
    77    33    75 1   
    78    35    76 1   
    79    43    78 1   
    80    44    78 1   
    81    45    78 1   
@<TRIPOS>SUBSTRUCTURE
     1 QDV         1 TEMP              0 ****  ****    0 ROOT
