@<TRIPOS>MOLECULE
QDW
   49    52     1     0     0
SMALL
No Charge or Current Charge


@<TRIPOS>ATOM
      1 C10         -9.3530   -29.2650    24.7380 ca         1 QDW       0.211000
      2 C13        -10.3530   -30.0080    22.6430 ca         1 QDW       0.235000
      3 C22         -6.8980   -32.7970    21.9180 c3         1 QDW       0.207800
      4 C01        -14.0810   -29.6060    22.9300 c3         1 QDW       0.161900
      5 C06        -11.6320   -29.6680    23.2020 ca         1 QDW       0.557300
      6 N07        -11.7870   -29.1360    24.4410 nb         1 QDW      -0.730000
      7 C08        -10.6660   -28.9520    25.1880 ca         1 QDW       0.362900
      8 C11         -9.2130   -29.7410    23.4220 ca         1 QDW      -0.136000
      9 N14        -10.2280   -30.6320    21.3760 nu         1 QDW      -0.882100
     10 S16         -8.9350   -31.4080    20.6760 s6         1 QDW       1.177100
     11 O17         -7.8880   -30.3930    20.5490 o          1 QDW      -0.520000
     12 O18         -9.4890   -32.0530    19.4860 o          1 QDW      -0.520000
     13 C19         -8.4290   -32.6750    21.8490 c3         1 QDW      -0.330400
     14 N25         -6.4050   -33.8830    22.8050 n3         1 QDW      -0.722600
     15 C30         -6.7740   -33.7610    24.2480 c3         1 QDW       0.221100
     16 C33         -6.4260   -32.4160    24.8950 ca         1 QDW      -0.119300
     17 C34         -5.1090   -32.0900    25.2750 ca         1 QDW      -0.101000
     18 C36         -4.8240   -30.8260    25.8230 ca         1 QDW      -0.108000
     19 C38         -5.8430   -29.8690    25.9690 ca         1 QDW       0.085100
     20 O39         -5.5310   -28.6350    26.5040 os         1 QDW      -0.335100
     21 C40         -6.6190   -27.8680    27.0710 c6         1 QDW       0.147600
     22 C43         -7.8490   -27.8190    26.1230 c6         1 QDW       0.177800
     23 N46         -8.1960   -29.1660    25.5710 nh         1 QDW      -0.821200
     24 C47         -7.1710   -30.1690    25.5630 ca         1 QDW       0.232000
     25 C48         -7.4470   -31.4720    25.0990 ca         1 QDW      -0.128000
     26 H1          -6.5330   -32.9760    20.8960 h1         1 QDW       0.051200
     27 H2          -6.4720   -31.8350    22.2390 h1         1 QDW       0.051200
     28 H3          -4.6250   -34.9830    23.2320 h1         1 QDW       0.034367
     29 H4          -4.7650   -34.4210    21.5560 h1         1 QDW       0.034367
     30 H5          -4.3580   -33.2650    22.8410 h1         1 QDW       0.034367
     31 H6         -14.8390   -29.8760    22.1830 h1         1 QDW       0.050367
     32 H7         -14.3020   -30.1600    23.8510 h1         1 QDW       0.050367
     33 H8         -14.1780   -28.5320    23.1370 h1         1 QDW       0.050367
     34 H9         -10.8230   -28.5700    26.1960 h4         1 QDW       0.035100
     35 H10         -8.2200   -29.9440    23.0440 ha         1 QDW       0.157000
     36 H11        -11.0680   -30.9330    20.8940 hn         1 QDW       0.522000
     37 H12         -8.8470   -32.4000    22.8170 h1         1 QDW       0.101700
     38 H13         -8.8820   -33.6130    21.5130 h1         1 QDW       0.101700
     39 H15         -7.8550   -33.9280    24.3580 h1         1 QDW       0.056700
     40 H16         -6.2930   -34.5620    24.8280 h1         1 QDW       0.056700
     41 H17         -4.3080   -32.8150    25.1510 ha         1 QDW       0.118000
     42 H18         -3.8080   -30.5830    26.1260 ha         1 QDW       0.129000
     43 H19         -6.2700   -26.8510    27.2990 h1         1 QDW       0.066200
     44 H20         -6.9180   -28.3420    28.0160 h1         1 QDW       0.066200
     45 H21         -7.6240   -27.1260    25.2980 h1         1 QDW       0.056700
     46 H22         -8.6980   -27.4010    26.6840 h1         1 QDW       0.056700
     47 H23         -8.4670   -31.7500    24.8580 ha         1 QDW       0.113000
     48 C26         -4.9630   -34.1500    22.6010 c3         1 QDW       0.154100
     49 O05        -12.7610   -29.9200    22.4420 os         1 QDW      -0.471300
@<TRIPOS>BOND
     1     1     7 ar  
     2     1     8 ar  
     3     1    23 1   
     4     2     5 ar  
     5     2     8 ar  
     6     2     9 1   
     7     3    13 1   
     8     3    14 1   
     9     3    26 1   
    10     3    27 1   
    11     4    31 1   
    12     4    32 1   
    13     4    33 1   
    14     4    49 1   
    15     5     6 ar  
    16     5    49 1   
    17     6     7 ar  
    18     7    34 1   
    19     8    35 1   
    20     9    10 1   
    21     9    36 1   
    22    10    11 2   
    23    10    12 2   
    24    10    13 1   
    25    13    37 1   
    26    13    38 1   
    27    14    15 1   
    28    14    48 1   
    29    15    16 1   
    30    15    39 1   
    31    15    40 1   
    32    16    17 ar  
    33    16    25 ar  
    34    17    18 ar  
    35    17    41 1   
    36    18    19 ar  
    37    18    42 1   
    38    19    20 1   
    39    19    24 ar  
    40    20    21 1   
    41    21    22 1   
    42    21    43 1   
    43    21    44 1   
    44    22    23 1   
    45    22    45 1   
    46    22    46 1   
    47    23    24 1   
    48    24    25 ar  
    49    25    47 1   
    50    28    48 1   
    51    29    48 1   
    52    30    48 1   
@<TRIPOS>SUBSTRUCTURE
     1 QDW         1 TEMP              0 ****  ****    0 ROOT
