@<TRIPOS>MOLECULE
QDW
   49    52     1     0     0
SMALL
bcc


@<TRIPOS>ATOM
      1 C10         -9.3370   -29.3020    24.7770 ca         1 QDW       0.007300
      2 C13        -10.2490   -29.9370    22.6450 ca         1 QDW       0.031300
      3 C22         -6.9150   -32.7150    22.0090 c3         1 QDW       0.207800
      4 C01        -13.8740   -29.8650    22.9970 c3         1 QDW       0.138700
      5 C06        -11.5240   -29.7510    23.2310 ca         1 QDW       0.622600
      6 N07        -11.6900   -29.3590    24.4640 nb         1 QDW      -0.730000
      7 C08        -10.6230   -29.1670    25.2460 ca         1 QDW       0.428200
      8 C11         -9.1580   -29.6370    23.4290 ca         1 QDW      -0.154000
      9 N14        -10.1710   -30.4270    21.3370 nu         1 QDW      -0.688500
     10 S16         -8.8300   -31.2040    20.7280 s6         1 QDW       1.207900
     11 O17         -7.7390   -30.2410    20.7210 o          1 QDW      -0.590800
     12 O18         -9.2630   -31.7800    19.4680 o          1 QDW      -0.590800
     13 C19         -8.4260   -32.5160    21.9030 c3         1 QDW      -0.219600
     14 N25         -6.5620   -33.8390    22.8530 n3         1 QDW      -0.722600
     15 C30         -6.9140   -33.6980    24.2660 c3         1 QDW       0.221100
     16 C33         -6.5240   -32.3900    24.9190 ca         1 QDW      -0.119300
     17 C34         -5.2120   -32.0670    25.2590 ca         1 QDW      -0.119000
     18 C36         -4.9190   -30.8140    25.7790 ca         1 QDW      -0.126000
     19 C38         -5.9070   -29.8470    25.9150 ca         1 QDW       0.085100
     20 O39         -5.5600   -28.6260    26.3930 os         1 QDW      -0.311900
     21 C40         -6.6440   -27.8870    26.9340 c6         1 QDW       0.124400
     22 C43         -7.7850   -27.8150    25.9460 c6         1 QDW       0.177800
     23 N46         -8.2230   -29.1650    25.6340 nh         1 QDW      -0.544400
     24 C47         -7.2300   -30.1420    25.5590 ca         1 QDW       0.093600
     25 C48         -7.5110   -31.4360    25.1230 ca         1 QDW      -0.146000
     26 H1          -6.5190   -32.9200    21.0120 h1         1 QDW       0.051200
     27 H2          -6.4490   -31.7790    22.3470 h1         1 QDW       0.051200
     28 H3          -4.9090   -35.0410    23.2840 h1         1 QDW       0.034367
     29 H4          -5.0500   -34.5450    21.6000 h1         1 QDW       0.034367
     30 H5          -4.4580   -33.4000    22.8030 h1         1 QDW       0.034367
     31 H6         -14.5630   -30.1290    22.2000 h1         1 QDW       0.050367
     32 H7         -14.0250   -30.5330    23.8450 h1         1 QDW       0.050367
     33 H8         -14.0630   -28.8400    23.3170 h1         1 QDW       0.050367
     34 H9         -10.8140   -28.9070    26.2810 h4         1 QDW       0.035100
     35 H10         -8.1520   -29.7070    23.0400 ha         1 QDW       0.175000
     36 H11        -11.0410   -30.7510    20.9300 hn         1 QDW       0.466800
     37 H12         -8.8650   -32.2370    22.8610 h1         1 QDW       0.101700
     38 H13         -8.9350   -33.4120    21.5470 h1         1 QDW       0.101700
     39 H15         -7.9950   -33.8270    24.3700 h1         1 QDW       0.056700
     40 H16         -6.4600   -34.5410    24.7910 h1         1 QDW       0.056700
     41 H17         -4.4170   -32.7920    25.1440 ha         1 QDW       0.136000
     42 H18         -3.9050   -30.5640    26.0640 ha         1 QDW       0.147000
     43 H19         -6.2700   -26.8890    27.1530 h1         1 QDW       0.066200
     44 H20         -6.9800   -28.3450    27.8710 h1         1 QDW       0.066200
     45 H21         -7.4650   -27.2750    25.0460 h1         1 QDW       0.056700
     46 H22         -8.6110   -27.2570    26.3900 h1         1 QDW       0.056700
     47 H23         -8.5390   -31.7040    24.9140 ha         1 QDW       0.131000
     48 C26         -5.1780   -34.2110    22.6310 c3         1 QDW       0.154100
     49 O05        -12.5710   -30.0070    22.4460 os         1 QDW      -0.448100
@<TRIPOS>BOND
     1     1     7 ar  
     2     1     8 ar  
     3     1    23 1   
     4     2     5 ar  
     5     2     8 ar  
     6     2     9 1   
     7     3    13 1   
     8     3    14 1   
     9     3    26 1   
    10     3    27 1   
    11     4    31 1   
    12     4    32 1   
    13     4    33 1   
    14     4    49 1   
    15     5     6 ar  
    16     5    49 1   
    17     6     7 ar  
    18     7    34 1   
    19     8    35 1   
    20     9    10 1   
    21     9    36 1   
    22    10    11 2   
    23    10    12 2   
    24    10    13 1   
    25    13    37 1   
    26    13    38 1   
    27    14    15 1   
    28    14    48 1   
    29    15    16 1   
    30    15    39 1   
    31    15    40 1   
    32    16    17 ar  
    33    16    25 ar  
    34    17    18 ar  
    35    17    41 1   
    36    18    19 ar  
    37    18    42 1   
    38    19    20 1   
    39    19    24 ar  
    40    20    21 1   
    41    21    22 1   
    42    21    43 1   
    43    21    44 1   
    44    22    23 1   
    45    22    45 1   
    46    22    46 1   
    47    23    24 1   
    48    24    25 ar  
    49    25    47 1   
    50    28    48 1   
    51    29    48 1   
    52    30    48 1   
@<TRIPOS>SUBSTRUCTURE
     1 QDW         1 TEMP              0 ****  ****    0 ROOT
