@<TRIPOS>MOLECULE
QDY
   80    83     1     0     0
SMALL
abcg2


@<TRIPOS>ATOM
      1 C10         -1.2900    -0.7420     0.6050 c3         1 QDY       0.023600
      2 C12          1.4090    -0.9530     0.0690 c3         1 QDY      -0.025700
      3 C13          1.5500    -2.4810    -0.0540 c3         1 QDY      -0.021100
      4 C14          2.8620    -2.9460     0.5160 ca         1 QDY      -0.093300
      5 C15          3.0480    -3.0230     1.8950 ca         1 QDY      -0.106000
      6 C16          4.2870    -3.3510     2.4280 ca         1 QDY      -0.113000
      7 C17          5.3620    -3.6090     1.5850 ca         1 QDY      -0.113000
      8 C18          5.1850    -3.5460     0.2100 ca         1 QDY      -0.113000
      9 C19          3.9440    -3.2160    -0.3190 ca         1 QDY      -0.106000
     10 C01         -4.0590     4.5540     1.0860 c3         1 QDY      -0.108767
     11 C02         -3.0080     4.4310    -0.0120 c3         1 QDY       0.225000
     12 C03         -3.4370     5.2410    -1.2300 c3         1 QDY      -0.108767
     13 C04         -1.6350     4.8950     0.4600 c3         1 QDY      -0.108767
     14 C06         -2.6760     2.0250     0.2510 c          1 QDY       0.656100
     15 C09         -2.7100    -0.4400     0.1350 c3         1 QDY       0.159700
     16 C20          2.5810    -0.2910    -0.6310 c          1 QDY       0.619100
     17 C23          4.8710     0.5080    -0.3000 c3         1 QDY       0.107000
     18 C24          5.8990     0.3540     0.8180 c3         1 QDY      -0.049100
     19 C25          7.2820     0.6410     0.3180 ca         1 QDY      -0.132300
     20 C26          8.1100    -0.3940    -0.1100 ca         1 QDY       0.339900
     21 C28          9.7890     1.0240    -0.6910 ca         1 QDY       0.335900
     22 C29          9.0560     2.1320    -0.2920 ca         1 QDY      -0.161000
     23 C30          7.7830     1.9340     0.2190 ca         1 QDY      -0.068000
     24 C31         -3.7110    -0.7250     1.2720 c3         1 QDY      -0.055100
     25 C32         -5.1240    -0.3730     0.9040 ca         1 QDY      -0.069300
     26 C33         -5.9070    -1.2150     0.0610 ca         1 QDY      -0.028000
     27 C34         -5.4340    -2.4580    -0.4280 ca         1 QDY      -0.108000
     28 C35         -6.2090    -3.2440    -1.2380 ca         1 QDY      -0.105000
     29 C36         -7.5040    -2.8290    -1.6090 ca         1 QDY      -0.109000
     30 C37         -7.9950    -1.6380    -1.1510 ca         1 QDY      -0.096000
     31 C38         -7.2180    -0.8060    -0.3090 ca         1 QDY      -0.038000
     32 C39         -7.7270     0.4240     0.1700 ca         1 QDY      -0.098000
     33 C40         -6.9660     1.2110     0.9870 ca         1 QDY      -0.107000
     34 C41         -5.6670     0.8060     1.3500 ca         1 QDY      -0.100000
     35 N08         -2.8510     0.8790    -0.4400 ns         1 QDY      -0.496900
     36 N22          3.5620     0.1220     0.1790 ns         1 QDY      -0.496900
     37 N27          9.3300    -0.2190    -0.6010 nb         1 QDY      -0.663000
     38 O05         -2.9560     3.0730    -0.5230 os         1 QDY      -0.474100
     39 O07         -2.3050     2.0770     1.4070 o          1 QDY      -0.563000
     40 O21          2.6250    -0.2050    -1.8490 o          1 QDY      -0.586100
     41 S11         -0.1070    -0.3190    -0.7070 ss         1 QDY      -0.346000
     42 H1          -1.0390    -0.1870     1.5080 h1         1 QDY       0.070200
     43 H2          -1.2230    -1.8070     0.8320 h1         1 QDY       0.070200
     44 H3           1.3850    -0.6760     1.1270 h1         1 QDY       0.070700
     45 H4           0.7160    -2.9520     0.4700 hc         1 QDY       0.065200
     46 H5           1.4670    -2.7610    -1.1050 hc         1 QDY       0.065200
     47 H6           2.2150    -2.8220     2.5600 ha         1 QDY       0.117000
     48 H7           4.4140    -3.4040     3.5010 ha         1 QDY       0.115500
     49 H8           6.3290    -3.8630     1.9990 ha         1 QDY       0.115000
     50 H9           6.0150    -3.7510    -0.4540 ha         1 QDY       0.115500
     51 H10          3.8170    -3.1580    -1.3940 ha         1 QDY       0.117000
     52 H11         -4.2180     5.6080     1.3160 hc         1 QDY       0.048922
     53 H12         -5.0140     4.1410     0.7570 hc         1 QDY       0.048922
     54 H13         -3.7600     4.0560     2.0050 hc         1 QDY       0.048922
     55 H14         -2.7090     5.1580    -2.0390 hc         1 QDY       0.048922
     56 H15         -4.4080     4.9130    -1.6040 hc         1 QDY       0.048922
     57 H16         -3.5190     6.2940    -0.9640 hc         1 QDY       0.048922
     58 H17         -1.3030     4.3630     1.3480 hc         1 QDY       0.048922
     59 H18         -0.8890     4.7670    -0.3260 hc         1 QDY       0.048922
     60 H19         -1.6790     5.9570     0.7030 hc         1 QDY       0.048922
     61 H20         -2.9290    -1.1200    -0.6900 h1         1 QDY       0.062700
     62 H21          4.8640     1.5390    -0.6650 h1         1 QDY       0.057200
     63 H22          5.1490    -0.1300    -1.1420 h1         1 QDY       0.057200
     64 H23          5.6490     1.0260     1.6430 hc         1 QDY       0.055200
     65 H24          5.8510    -0.6670     1.2050 hc         1 QDY       0.055200
     66 H25          7.7590    -1.4200    -0.0450 h4         1 QDY       0.017100
     67 H26         10.7880     1.1460    -1.0970 h4         1 QDY       0.020100
     68 H27          9.4750     3.1240    -0.3820 ha         1 QDY       0.125000
     69 H28          7.1860     2.7780     0.5420 ha         1 QDY       0.119000
     70 H29         -3.6230    -1.7800     1.5420 hc         1 QDY       0.063700
     71 H30         -3.4170    -0.1610     2.1580 hc         1 QDY       0.063700
     72 H31         -4.4470    -2.8060    -0.1530 ha         1 QDY       0.109000
     73 H32         -5.8270    -4.1900    -1.5970 ha         1 QDY       0.113000
     74 H33         -8.1060    -3.4560    -2.2530 ha         1 QDY       0.114000
     75 H34         -8.9910    -1.3150    -1.4270 ha         1 QDY       0.113000
     76 H35         -8.7260     0.7280    -0.1180 ha         1 QDY       0.113000
     77 H36         -7.3550     2.1500     1.3600 ha         1 QDY       0.114000
     78 H37         -5.0790     1.4490     1.9950 ha         1 QDY       0.122000
     79 H38         -3.2410     0.9410    -1.3650 hn         1 QDY       0.334500
     80 H39          3.4470    -0.0080     1.1710 hn         1 QDY       0.313500
@<TRIPOS>BOND
     1     1    15 1   
     2     1    41 1   
     3     1    42 1   
     4     1    43 1   
     5     2     3 1   
     6     2    16 1   
     7     2    41 1   
     8     2    44 1   
     9     3     4 1   
    10     3    45 1   
    11     3    46 1   
    12     4     5 ar  
    13     4     9 ar  
    14     5     6 ar  
    15     5    47 1   
    16     6     7 ar  
    17     6    48 1   
    18     7     8 ar  
    19     7    49 1   
    20     8     9 ar  
    21     8    50 1   
    22     9    51 1   
    23    10    11 1   
    24    10    52 1   
    25    10    53 1   
    26    10    54 1   
    27    11    12 1   
    28    11    13 1   
    29    11    38 1   
    30    12    55 1   
    31    12    56 1   
    32    12    57 1   
    33    13    58 1   
    34    13    59 1   
    35    13    60 1   
    36    14    35 1   
    37    14    38 1   
    38    14    39 2   
    39    15    24 1   
    40    15    35 1   
    41    15    61 1   
    42    16    36 1   
    43    16    40 2   
    44    17    18 1   
    45    17    36 1   
    46    17    62 1   
    47    17    63 1   
    48    18    19 1   
    49    18    64 1   
    50    18    65 1   
    51    19    20 ar  
    52    19    23 ar  
    53    20    37 ar  
    54    20    66 1   
    55    21    22 ar  
    56    21    37 ar  
    57    21    67 1   
    58    22    23 ar  
    59    22    68 1   
    60    23    69 1   
    61    24    25 1   
    62    24    70 1   
    63    24    71 1   
    64    25    26 ar  
    65    25    34 ar  
    66    26    27 ar  
    67    26    31 ar  
    68    27    28 ar  
    69    27    72 1   
    70    28    29 ar  
    71    28    73 1   
    72    29    30 ar  
    73    29    74 1   
    74    30    31 ar  
    75    30    75 1   
    76    31    32 ar  
    77    32    33 ar  
    78    32    76 1   
    79    33    34 ar  
    80    33    77 1   
    81    34    78 1   
    82    35    79 1   
    83    36    80 1   
@<TRIPOS>SUBSTRUCTURE
     1 QDY         1 TEMP              0 ****  ****    0 ROOT
