@<TRIPOS>MOLECULE
QDY
   80    83     1     0     0
SMALL
No Charge or Current Charge


@<TRIPOS>ATOM
      1 C10         -1.3580    -1.0100     0.5450 c3         1 QDY       0.023600
      2 C12          1.4780    -1.0400     0.1580 c3         1 QDY      -0.025700
      3 C13          1.6740    -2.5420     0.4690 c3         1 QDY      -0.021100
      4 C14          2.9500    -2.7870     1.2670 ca         1 QDY      -0.093300
      5 C15          3.0070    -2.4500     2.6330 ca         1 QDY      -0.106000
      6 C16          4.1950    -2.6390     3.3610 ca         1 QDY      -0.113000
      7 C17          5.3320    -3.1660     2.7270 ca         1 QDY      -0.113000
      8 C18          5.2810    -3.5050     1.3650 ca         1 QDY      -0.113000
      9 C19          4.0940    -3.3160     0.6370 ca         1 QDY      -0.106000
     10 C01         -3.9100     4.5090     1.2040 c3         1 QDY      -0.108767
     11 C02         -2.8230     4.3230     0.1130 c3         1 QDY       0.225000
     12 C03         -3.1460     5.2110    -1.1090 c3         1 QDY      -0.108767
     13 C04         -1.3900     4.6260     0.6230 c3         1 QDY      -0.108767
     14 C06         -2.6640     1.8760     0.3860 c          1 QDY       0.656100
     15 C09         -2.7800    -0.6280     0.0660 c3         1 QDY       0.159700
     16 C20          2.7110    -0.4750    -0.5900 c          1 QDY       0.619100
     17 C23          4.7660     0.9480    -0.2940 c3         1 QDY       0.107000
     18 C24          5.9030    -0.0860    -0.1600 c3         1 QDY      -0.049100
     19 C25          7.2480     0.4830    -0.5870 ca         1 QDY      -0.132300
     20 C26          7.7280     0.2940    -1.9010 ca         1 QDY       0.339900
     21 C28          9.6680     1.4810    -1.4570 ca         1 QDY       0.335900
     22 C29          9.2700     1.7190    -0.1300 ca         1 QDY      -0.161000
     23 C30          8.0390     1.2140     0.3180 ca         1 QDY      -0.068000
     24 C31         -3.8610    -0.9580     1.1310 c3         1 QDY      -0.055100
     25 C32         -5.2710    -0.5170     0.7210 ca         1 QDY      -0.069300
     26 C33         -6.0650    -1.2420    -0.2100 ca         1 QDY      -0.028000
     27 C34         -5.6110    -2.4410    -0.8110 ca         1 QDY      -0.108000
     28 C35         -6.4170    -3.1320    -1.7310 ca         1 QDY      -0.105000
     29 C36         -7.6880    -2.6410    -2.0640 ca         1 QDY      -0.109000
     30 C37         -8.1550    -1.4560    -1.4760 ca         1 QDY      -0.096000
     31 C38         -7.3530    -0.7570    -0.5540 ca         1 QDY      -0.038000
     32 C39         -7.8430     0.4290     0.0230 ca         1 QDY      -0.098000
     33 C40         -7.0600     1.1390     0.9430 ca         1 QDY      -0.107000
     34 C41         -5.7860     0.6680     1.2890 ca         1 QDY      -0.100000
     35 N08         -2.8590     0.7670    -0.3860 ns         1 QDY      -0.496900
     36 N22          3.4810     0.4030     0.1450 ns         1 QDY      -0.496900
     37 N27          8.9150     0.7800    -2.3360 nb         1 QDY      -0.663000
     38 O05         -2.8820     2.9720    -0.4020 os         1 QDY      -0.474100
     39 O07         -2.3600     1.8660     1.5670 o          1 QDY      -0.563000
     40 O21          2.9930    -0.7760    -1.7430 o          1 QDY      -0.586100
     41 S11         -0.0980    -0.7580    -0.7940 ss         1 QDY      -0.346000
     42 H1          -1.0820    -0.4070     1.4180 h1         1 QDY       0.070200
     43 H2          -1.3500    -2.0660     0.8440 h1         1 QDY       0.070200
     44 H3           1.3910    -0.4950     1.1060 h1         1 QDY       0.070700
     45 H4           0.8120    -2.9170     1.0340 hc         1 QDY       0.065200
     46 H5           1.6920    -3.1070    -0.4710 hc         1 QDY       0.065200
     47 H6           2.1320    -2.0370     3.1310 ha         1 QDY       0.117000
     48 H7           4.2330    -2.3760     4.4160 ha         1 QDY       0.115500
     49 H8           6.2520    -3.3100     3.2900 ha         1 QDY       0.115000
     50 H9           6.1630    -3.9100     0.8720 ha         1 QDY       0.115500
     51 H10          4.0680    -3.5730    -0.4210 ha         1 QDY       0.117000
     52 H11         -4.0350     5.5720     1.4410 hc         1 QDY       0.048922
     53 H12         -4.8770     4.1230     0.8590 hc         1 QDY       0.048922
     54 H13         -3.6470     3.9980     2.1370 hc         1 QDY       0.048922
     55 H14         -2.4110     5.0570    -1.9080 hc         1 QDY       0.048922
     56 H15         -4.1400     4.9760    -1.5090 hc         1 QDY       0.048922
     57 H16         -3.1330     6.2720    -0.8340 hc         1 QDY       0.048922
     58 H17         -1.1750     4.1190     1.5700 hc         1 QDY       0.048922
     59 H18         -0.6410     4.3140    -0.1140 hc         1 QDY       0.048922
     60 H19         -1.2670     5.7010     0.7970 hc         1 QDY       0.048922
     61 H20         -2.9940    -1.2460    -0.8150 h1         1 QDY       0.062700
     62 H21          5.0000     1.8290     0.3170 h1         1 QDY       0.057200
     63 H22          4.6830     1.2740    -1.3400 h1         1 QDY       0.057200
     64 H23          5.9530    -0.4280     0.8820 hc         1 QDY       0.055200
     65 H24          5.6600    -0.9710    -0.7600 hc         1 QDY       0.055200
     66 H25          7.1420    -0.2640    -2.6300 h4         1 QDY       0.017100
     67 H26         10.6180     1.8630    -1.8280 h4         1 QDY       0.020100
     68 H27          9.9120     2.2890     0.5350 ha         1 QDY       0.125000
     69 H28          7.7080     1.3860     1.3410 ha         1 QDY       0.119000
     70 H29         -3.8420    -2.0310     1.3510 hc         1 QDY       0.063700
     71 H30         -3.5820    -0.4770     2.0760 hc         1 QDY       0.063700
     72 H31         -4.6360    -2.8570    -0.5780 ha         1 QDY       0.109000
     73 H32         -6.0560    -4.0520    -2.1850 ha         1 QDY       0.113000
     74 H33         -8.3110    -3.1780    -2.7760 ha         1 QDY       0.114000
     75 H34         -9.1420    -1.0820    -1.7390 ha         1 QDY       0.113000
     76 H35         -8.8300     0.8010    -0.2410 ha         1 QDY       0.113000
     77 H36         -7.4400     2.0560     1.3870 ha         1 QDY       0.114000
     78 H37         -5.1900     1.2350     2.0010 ha         1 QDY       0.122000
     79 H38         -3.1040     0.9510    -1.3490 hn         1 QDY       0.334500
     80 H39          3.1730     0.6000     1.0900 hn         1 QDY       0.313500
@<TRIPOS>BOND
     1     1    15 1   
     2     1    41 1   
     3     1    42 1   
     4     1    43 1   
     5     2     3 1   
     6     2    16 1   
     7     2    41 1   
     8     2    44 1   
     9     3     4 1   
    10     3    45 1   
    11     3    46 1   
    12     4     5 ar  
    13     4     9 ar  
    14     5     6 ar  
    15     5    47 1   
    16     6     7 ar  
    17     6    48 1   
    18     7     8 ar  
    19     7    49 1   
    20     8     9 ar  
    21     8    50 1   
    22     9    51 1   
    23    10    11 1   
    24    10    52 1   
    25    10    53 1   
    26    10    54 1   
    27    11    12 1   
    28    11    13 1   
    29    11    38 1   
    30    12    55 1   
    31    12    56 1   
    32    12    57 1   
    33    13    58 1   
    34    13    59 1   
    35    13    60 1   
    36    14    35 1   
    37    14    38 1   
    38    14    39 2   
    39    15    24 1   
    40    15    35 1   
    41    15    61 1   
    42    16    36 1   
    43    16    40 2   
    44    17    18 1   
    45    17    36 1   
    46    17    62 1   
    47    17    63 1   
    48    18    19 1   
    49    18    64 1   
    50    18    65 1   
    51    19    20 ar  
    52    19    23 ar  
    53    20    37 ar  
    54    20    66 1   
    55    21    22 ar  
    56    21    37 ar  
    57    21    67 1   
    58    22    23 ar  
    59    22    68 1   
    60    23    69 1   
    61    24    25 1   
    62    24    70 1   
    63    24    71 1   
    64    25    26 ar  
    65    25    34 ar  
    66    26    27 ar  
    67    26    31 ar  
    68    27    28 ar  
    69    27    72 1   
    70    28    29 ar  
    71    28    73 1   
    72    29    30 ar  
    73    29    74 1   
    74    30    31 ar  
    75    30    75 1   
    76    31    32 ar  
    77    32    33 ar  
    78    32    76 1   
    79    33    34 ar  
    80    33    77 1   
    81    34    78 1   
    82    35    79 1   
    83    36    80 1   
@<TRIPOS>SUBSTRUCTURE
     1 QDY         1 TEMP              0 ****  ****    0 ROOT
