@<TRIPOS>MOLECULE
QDZ
   49    53     1     0     0
SMALL
abcg2


@<TRIPOS>ATOM
      1 C1          12.2000    36.3730    22.0720 cc         1 QDZ      -0.155100
      2 C2          10.9050    36.7750    21.8540 cd         1 QDZ      -0.221200
      3 C3          10.8860    37.4450    20.5900 ca         1 QDZ      -0.051800
      4 N6           8.0120    34.4250    26.5560 n3         1 QDZ      -0.712600
      5 C7          10.2830    38.6490    18.5900 ca         1 QDZ      -0.120000
      6 C8           9.8960    38.0870    19.8090 ca         1 QDZ      -0.075900
      7 C9           8.5130    38.1560    20.2590 cc         1 QDZ       0.499400
      8 C10          6.3790    38.7760    20.3440 ca         1 QDZ       0.360500
      9 C11          6.6790    37.8250    21.3460 ca         1 QDZ       0.006400
     10 C12          5.6390    37.4450    22.2020 ca         1 QDZ       0.123800
     11 C13          4.4010    38.0530    21.9800 ca         1 QDZ      -0.190000
     12 C14          4.2440    38.9820    20.9520 ca         1 QDZ       0.365900
     13 C15          6.9230    35.7390    23.4730 cc         1 QDZ      -0.116000
     14 C16          6.6470    34.9720    24.5750 cd         1 QDZ      -0.209300
     15 C19          8.8710    35.5980    26.4540 c3         1 QDZ       0.147600
     16 C20          8.6990    33.3400    27.2440 c3         1 QDZ       0.147600
     17 C18          7.5420    33.9780    25.2410 c3         1 QDZ       0.246100
     18 C17          5.3320    35.3520    24.9460 cd         1 QDZ       0.282900
     19 N5           4.8340    36.2730    24.1380 nc         1 QDZ      -0.523800
     20 N4           5.8210    36.5120    23.2280 na         1 QDZ       0.203000
     21 N3           5.2160    39.3660    20.1130 nb         1 QDZ      -0.676000
     22 N1           7.5610    38.9600    19.6700 na         1 QDZ      -0.420300
     23 N2           8.0050    37.4640    21.2670 nd         1 QDZ      -0.582100
     24 C6          11.6040    38.5930    18.1340 ca         1 QDZ      -0.103000
     25 C5          12.5950    37.9730    18.8800 ca         1 QDZ      -0.103000
     26 C4          12.2240    37.4090    20.0960 ca         1 QDZ      -0.056200
     27 N           12.9990    36.7500    21.0210 na         1 QDZ      -0.097700
     28 C           14.4190    36.4880    20.8930 c3         1 QDZ       0.066900
     29 H1          12.6240    35.8390    22.9070 h4         1 QDZ       0.213000
     30 H2          10.0730    36.6130    22.5120 ha         1 QDZ       0.224000
     31 H4           9.5480    39.1270    17.9570 ha         1 QDZ       0.104000
     32 H5           3.5600    37.8010    22.6070 ha         1 QDZ       0.153000
     33 H6           3.2730    39.4390    20.8010 h4         1 QDZ       0.027100
     34 H7           7.7950    35.8090    22.8480 h4         1 QDZ       0.185000
     35 H8           9.1780    35.9110    27.4530 h1         1 QDZ       0.031033
     36 H9           9.7790    35.3990    25.8600 h1         1 QDZ       0.031033
     37 H10          8.3320    36.4200    25.9840 h1         1 QDZ       0.031033
     38 H11          9.0050    33.6720    28.2380 h1         1 QDZ       0.031033
     39 H12          8.0290    32.4870    27.3530 h1         1 QDZ       0.031033
     40 H13          9.6010    33.0050    26.7030 h1         1 QDZ       0.031033
     41 H14          6.9980    33.0420    25.3920 h1         1 QDZ       0.036700
     42 H15          8.3900    33.7520    24.5730 h1         1 QDZ       0.036700
     43 H16          4.7410    34.9840    25.7710 h4         1 QDZ       0.044100
     44 H17          7.6980    39.6120    18.9140 hn         1 QDZ       0.371000
     45 H19         11.8510    39.0390    17.1790 ha         1 QDZ       0.116000
     46 H20         13.6170    37.9300    18.5270 ha         1 QDZ       0.117000
     47 H21         14.7610    35.9750    21.7890 h1         1 QDZ       0.050367
     48 H22         14.6180    35.8580    20.0240 h1         1 QDZ       0.050367
     49 H23         14.9730    37.4220    20.7860 h1         1 QDZ       0.050367
@<TRIPOS>BOND
     1     1     2 2   
     2     1    27 1   
     3     1    29 1   
     4     2     3 1   
     5     2    30 1   
     6     3     6 ar  
     7     3    26 ar  
     8     4    15 1   
     9     4    16 1   
    10     4    17 1   
    11     5     6 ar  
    12     5    24 ar  
    13     5    31 1   
    14     6     7 1   
    15     7    22 1   
    16     7    23 2   
    17     8     9 ar  
    18     8    21 ar  
    19     8    22 1   
    20     9    10 ar  
    21     9    23 1   
    22    10    11 ar  
    23    10    20 1   
    24    11    12 ar  
    25    11    32 1   
    26    12    21 ar  
    27    12    33 1   
    28    13    14 2   
    29    13    20 1   
    30    13    34 1   
    31    14    17 1   
    32    14    18 1   
    33    15    35 1   
    34    15    36 1   
    35    15    37 1   
    36    16    38 1   
    37    16    39 1   
    38    16    40 1   
    39    17    41 1   
    40    17    42 1   
    41    18    19 2   
    42    18    43 1   
    43    19    20 1   
    44    22    44 1   
    45    24    25 ar  
    46    24    45 1   
    47    25    26 ar  
    48    25    46 1   
    49    26    27 1   
    50    27    28 1   
    51    28    47 1   
    52    28    48 1   
    53    28    49 1   
@<TRIPOS>SUBSTRUCTURE
     1 QDZ         1 TEMP              0 ****  ****    0 ROOT
