@<TRIPOS>MOLECULE
QDZ
   49    53     1     0     0
SMALL
No Charge or Current Charge


@<TRIPOS>ATOM
      1 C1          12.1190    36.2700    22.3380 cc         1 QDZ      -0.155100
      2 C2          10.8540    36.7010    21.9680 cd         1 QDZ      -0.221200
      3 C3          10.8960    37.4750    20.7430 ca         1 QDZ      -0.051800
      4 N6           8.3360    34.5070    26.2380 n3         1 QDZ      -0.712600
      5 C7          10.3450    38.7920    18.8060 ca         1 QDZ      -0.120000
      6 C8           9.8960    38.1180    19.9750 ca         1 QDZ      -0.075900
      7 C9           8.4650    38.1110    20.3390 cc         1 QDZ       0.499400
      8 C10          6.2810    38.5380    20.1840 ca         1 QDZ       0.360500
      9 C11          6.5610    37.8010    21.3110 ca         1 QDZ       0.006400
     10 C12          5.5160    37.4310    22.1840 ca         1 QDZ       0.123800
     11 C13          4.2200    37.8630    21.8260 ca         1 QDZ      -0.190000
     12 C14          4.0370    38.6140    20.6490 ca         1 QDZ       0.365900
     13 C15          6.5620    35.5670    23.4010 cc         1 QDZ      -0.116000
     14 C16          6.4960    35.2080    24.7210 cd         1 QDZ      -0.209300
     15 C19          9.3920    35.2150    25.4760 c3         1 QDZ       0.147600
     16 C20          8.8830    33.4060    27.0600 c3         1 QDZ       0.147600
     17 C18          7.2020    34.0640    25.3940 c3         1 QDZ       0.246100
     18 C17          5.6300    36.1330    25.3570 cd         1 QDZ       0.282900
     19 N5           5.1470    37.0510    24.5370 nc         1 QDZ      -0.523800
     20 N4           5.7390    36.6830    23.3490 na         1 QDZ       0.203000
     21 N3           5.0570    38.9550    19.8230 nb         1 QDZ      -0.676000
     22 N1           7.4740    38.7250    19.5800 na         1 QDZ      -0.420300
     23 N2           7.9260    37.5280    21.4240 nd         1 QDZ      -0.582100
     24 C6          11.7120    38.8090    18.4460 ca         1 QDZ      -0.103000
     25 C5          12.6710    38.1540    19.2410 ca         1 QDZ      -0.103000
     26 C4          12.2240    37.4920    20.3920 ca         1 QDZ      -0.056200
     27 N           12.9590    36.7790    21.3330 na         1 QDZ      -0.097700
     28 C           14.4180    36.6190    21.2290 c3         1 QDZ       0.066900
     29 H1          12.4710    35.6800    23.1790 h4         1 QDZ       0.213000
     30 H2           9.9580    36.4760    22.5400 ha         1 QDZ       0.224000
     31 H4           9.6400    39.3120    18.1630 ha         1 QDZ       0.104000
     32 H5           3.3630    37.6200    22.4460 ha         1 QDZ       0.153000
     33 H6           3.0430    38.9530    20.3580 h4         1 QDZ       0.027100
     34 H7           7.0930    35.1610    22.5500 h4         1 QDZ       0.185000
     35 H8          10.1970    35.5460    26.1460 h1         1 QDZ       0.031033
     36 H9           9.8300    34.5590    24.7110 h1         1 QDZ       0.031033
     37 H10          8.9900    36.1060    24.9760 h1         1 QDZ       0.031033
     38 H11          9.6680    33.7780    27.7340 h1         1 QDZ       0.031033
     39 H12          8.0960    32.9540    27.6780 h1         1 QDZ       0.031033
     40 H13          9.3180    32.6220    26.4260 h1         1 QDZ       0.031033
     41 H14          6.4650    33.5300    26.0090 h1         1 QDZ       0.036700
     42 H15          7.5520    33.3610    24.6260 h1         1 QDZ       0.036700
     43 H16          5.3450    36.1590    26.4010 h4         1 QDZ       0.044100
     44 H17          7.6170    39.2290    18.7210 hn         1 QDZ       0.371000
     45 H19         12.0270    39.3330    17.5450 ha         1 QDZ       0.116000
     46 H20         13.7230    38.1670    18.9640 ha         1 QDZ       0.117000
     47 H21         14.7880    36.0250    22.0730 h1         1 QDZ       0.050367
     48 H22         14.6670    36.1070    20.2920 h1         1 QDZ       0.050367
     49 H23         14.8990    37.6050    21.2450 h1         1 QDZ       0.050367
@<TRIPOS>BOND
     1     1     2 2   
     2     1    27 1   
     3     1    29 1   
     4     2     3 1   
     5     2    30 1   
     6     3     6 ar  
     7     3    26 ar  
     8     4    15 1   
     9     4    16 1   
    10     4    17 1   
    11     5     6 ar  
    12     5    24 ar  
    13     5    31 1   
    14     6     7 1   
    15     7    22 1   
    16     7    23 2   
    17     8     9 ar  
    18     8    21 ar  
    19     8    22 1   
    20     9    10 ar  
    21     9    23 1   
    22    10    11 ar  
    23    10    20 1   
    24    11    12 ar  
    25    11    32 1   
    26    12    21 ar  
    27    12    33 1   
    28    13    14 2   
    29    13    20 1   
    30    13    34 1   
    31    14    17 1   
    32    14    18 1   
    33    15    35 1   
    34    15    36 1   
    35    15    37 1   
    36    16    38 1   
    37    16    39 1   
    38    16    40 1   
    39    17    41 1   
    40    17    42 1   
    41    18    19 2   
    42    18    43 1   
    43    19    20 1   
    44    22    44 1   
    45    24    25 ar  
    46    24    45 1   
    47    25    26 ar  
    48    25    46 1   
    49    26    27 1   
    50    27    28 1   
    51    28    47 1   
    52    28    48 1   
    53    28    49 1   
@<TRIPOS>SUBSTRUCTURE
     1 QDZ         1 TEMP              0 ****  ****    0 ROOT
