@<TRIPOS>MOLECULE
QE0
   69    71     1     0     0
SMALL
abcg2


@<TRIPOS>ATOM
      1 C1           7.9460   -31.9620     2.3700 c5         1 QE0      -0.122400
      2 C2           7.7870   -33.3170     1.6570 c5         1 QE0       0.038700
      3 C7           6.5320   -34.0410     2.1410 c          1 QE0       0.598100
      4 C10          7.3710   -33.4730    -2.1290 c3         1 QE0      -0.175000
      5 C11          5.8890   -33.0200    -2.3580 c3         1 QE0      -0.043700
      6 C12          7.8190   -34.5040    -3.1080 cc         1 QE0       0.201300
      7 C13          4.8700   -34.1190    -2.0700 c3         1 QE0      -0.093600
      8 C14          5.7160   -32.4540    -3.7660 c3         1 QE0      -0.093600
      9 C15          7.5930   -35.8280    -3.2960 cd         1 QE0      -0.213000
     10 C16          8.3090   -36.1560    -4.4810 cd         1 QE0       0.279300
     11 C19          8.4120   -37.4820    -5.1530 c3         1 QE0      -0.133400
     12 C22          5.6880   -35.7110     3.7380 c3         1 QE0       0.173000
     13 C24          5.0320   -34.8800     4.8290 ca         1 QE0      -0.123300
     14 C27          3.8040   -33.4330     6.8590 ca         1 QE0       0.164000
     15 C32          1.7830   -36.5810     4.9200 c3         1 QE0       0.125600
     16 C33          1.3420   -37.7100     4.0130 c3         1 QE0       0.159600
     17 C35          2.1230   -37.0570     1.8400 c3         1 QE0       0.143900
     18 N3           7.6960   -32.9540     0.2420 n          1 QE0      -0.397800
     19 C4           7.8700   -31.5110     0.0320 c5         1 QE0       0.114000
     20 C5           8.5620   -31.0550     1.3070 c5         1 QE0       0.150300
     21 O6           9.9620   -31.2950     1.1440 oh         1 QE0      -0.656000
     22 O9           7.5240   -35.1120    -0.3540 o          1 QE0      -0.604100
     23 N17          8.9210   -35.1050    -4.9710 nc         1 QE0      -0.364300
     24 O18          8.6150   -34.0460    -4.1020 os         1 QE0      -0.109700
     25 N20          6.7560   -34.9930     3.0610 ns         1 QE0      -0.499900
     26 O21          5.4100   -33.7190     1.7570 o          1 QE0      -0.594100
     27 C23          6.2410   -37.0250     4.2910 c3         1 QE0      -0.100100
     28 C25          3.7270   -35.1980     5.2440 ca         1 QE0       0.164100
     29 C26          3.1070   -34.4740     6.2600 ca         1 QE0      -0.189000
     30 C28          5.0880   -33.0920     6.4740 ca         1 QE0      -0.140000
     31 C29          5.6850   -33.8290     5.4540 ca         1 QE0      -0.062000
     32 O31          3.1340   -36.2340     4.5990 os         1 QE0      -0.360100
     33 O34          1.0110   -37.3130     2.6920 os         1 QE0      -0.463000
     34 H1           8.5590   -32.0390     3.2660 hc         1 QE0       0.067700
     35 H2           6.9670   -31.5700     2.6520 hc         1 QE0       0.067700
     36 H3           8.6610   -33.9510     1.8140 h1         1 QE0       0.073700
     37 H4           7.9910   -32.5950    -2.3110 hc         1 QE0       0.080700
     38 H5           5.7210   -32.2090    -1.6460 hc         1 QE0       0.051700
     39 H6           4.9570   -34.4960    -1.0510 hc         1 QE0       0.043033
     40 H7           3.8610   -33.7230    -2.1990 hc         1 QE0       0.043033
     41 H8           4.9900   -34.9590    -2.7570 hc         1 QE0       0.043033
     42 H9           4.7110   -32.0450    -3.8830 hc         1 QE0       0.043033
     43 H10          6.4360   -31.6570    -3.9660 hc         1 QE0       0.043033
     44 H11          5.8510   -33.2320    -4.5210 hc         1 QE0       0.043033
     45 H12          7.0120   -36.4880    -2.6790 ha         1 QE0       0.163000
     46 H13          9.0390   -37.4160    -6.0410 hc         1 QE0       0.055700
     47 H14          8.8390   -38.2200    -4.4720 hc         1 QE0       0.055700
     48 H15          7.4220   -37.8380    -5.4460 hc         1 QE0       0.055700
     49 H16          4.9290   -35.9370     2.9900 h1         1 QE0       0.090700
     50 H17          1.7260   -36.9100     5.9630 h1         1 QE0       0.049200
     51 H18          1.1320   -35.7120     4.7860 h1         1 QE0       0.049200
     52 H19          0.4310   -38.1380     4.4350 h1         1 QE0       0.056200
     53 H20          2.1140   -38.4900     3.9960 h1         1 QE0       0.056200
     54 H21          1.7340   -36.9950     0.8240 h1         1 QE0       0.037700
     55 H22          2.6220   -36.1200     2.0940 h1         1 QE0       0.037700
     56 H23          2.8540   -37.8720     1.8980 h1         1 QE0       0.037700
     57 H24          8.4810   -31.3020    -0.8430 h1         1 QE0       0.067200
     58 H25          6.9060   -31.0090    -0.0750 h1         1 QE0       0.067200
     59 H26          8.3770   -29.9980     1.5080 h1         1 QE0       0.057700
     60 H27         10.4000   -31.1130     1.9850 ho         1 QE0       0.445000
     61 H28          7.7080   -35.1900     3.3290 hn         1 QE0       0.314500
     62 H29          5.4500   -37.5790     4.7940 hc         1 QE0       0.047033
     63 H30          6.6390   -37.6400     3.4820 hc         1 QE0       0.047033
     64 H31          7.0390   -36.8300     5.0110 hc         1 QE0       0.047033
     65 H32          2.1060   -34.7080     6.5870 ha         1 QE0       0.135000
     66 H33          5.6110   -32.2740     6.9490 ha         1 QE0       0.131000
     67 H34          6.6850   -33.5670     5.1350 ha         1 QE0       0.113000
     68 C8           7.5570   -33.9250    -0.6820 c          1 QE0       0.624100
     69 CL30         3.0190   -32.5270     8.1400 cl         1 QE0      -0.213000
@<TRIPOS>BOND
     1     1     2 1   
     2     1    20 1   
     3     1    34 1   
     4     1    35 1   
     5     2     3 1   
     6     2    18 1   
     7     2    36 1   
     8     3    25 1   
     9     3    26 2   
    10     4     5 1   
    11     4     6 1   
    12     4    37 1   
    13     4    68 1   
    14     5     7 1   
    15     5     8 1   
    16     5    38 1   
    17     6     9 2   
    18     6    24 1   
    19     7    39 1   
    20     7    40 1   
    21     7    41 1   
    22     8    42 1   
    23     8    43 1   
    24     8    44 1   
    25     9    10 1   
    26     9    45 1   
    27    10    11 1   
    28    10    23 2   
    29    11    46 1   
    30    11    47 1   
    31    11    48 1   
    32    12    13 1   
    33    12    25 1   
    34    12    27 1   
    35    12    49 1   
    36    13    28 ar  
    37    13    31 ar  
    38    14    29 ar  
    39    14    30 ar  
    40    14    69 1   
    41    15    16 1   
    42    15    32 1   
    43    15    50 1   
    44    15    51 1   
    45    16    33 1   
    46    16    52 1   
    47    16    53 1   
    48    17    33 1   
    49    17    54 1   
    50    17    55 1   
    51    17    56 1   
    52    18    19 1   
    53    18    68 1   
    54    19    20 1   
    55    19    57 1   
    56    19    58 1   
    57    20    21 1   
    58    20    59 1   
    59    21    60 1   
    60    22    68 2   
    61    23    24 1   
    62    25    61 1   
    63    27    62 1   
    64    27    63 1   
    65    27    64 1   
    66    28    29 ar  
    67    28    32 1   
    68    29    65 1   
    69    30    31 ar  
    70    30    66 1   
    71    31    67 1   
@<TRIPOS>SUBSTRUCTURE
     1 QE0         1 TEMP              0 ****  ****    0 ROOT
