@<TRIPOS>MOLECULE
QE0
   69    71     1     0     0
SMALL
No Charge or Current Charge


@<TRIPOS>ATOM
      1 C1           7.7180   -32.5750     2.1150 c5         1 QE0      -0.122400
      2 C2           7.4070   -33.9470     1.4420 c5         1 QE0       0.038700
      3 C7           6.1550   -34.5730     2.1370 c          1 QE0       0.598100
      4 C10          6.4660   -33.9070    -2.3820 c3         1 QE0      -0.175000
      5 C11          5.0940   -34.4300    -2.9230 c3         1 QE0      -0.043700
      6 C12          7.6060   -34.1190    -3.3400 cc         1 QE0       0.201300
      7 C13          5.1390   -35.8720    -3.4940 c3         1 QE0      -0.093600
      8 C14          4.4840   -33.4600    -3.9630 c3         1 QE0      -0.093600
      9 C15          8.4790   -35.1480    -3.5010 cd         1 QE0      -0.213000
     10 C16          9.3390   -34.7730    -4.5440 cd         1 QE0       0.279300
     11 C19         10.4780   -35.5780    -5.1010 c3         1 QE0      -0.133400
     12 C22          5.6530   -35.9430     4.1840 c3         1 QE0       0.173000
     13 C24          5.2290   -35.0230     5.3330 ca         1 QE0      -0.123300
     14 C27          4.4880   -33.3200     7.4540 ca         1 QE0       0.164000
     15 C32          1.5080   -35.5130     5.2570 c3         1 QE0       0.125600
     16 C33          0.7440   -36.4210     4.2570 c3         1 QE0       0.159600
     17 C35          1.7200   -35.4650     2.2120 c3         1 QE0       0.143900
     18 N3           7.2000   -33.5270     0.0290 n          1 QE0      -0.397800
     19 C4           7.7930   -32.1960    -0.2600 c5         1 QE0       0.114000
     20 C5           8.5800   -31.8620     1.0440 c5         1 QE0       0.150300
     21 O6           9.9150   -32.3790     1.0190 oh         1 QE0      -0.656000
     22 O9           6.7760   -35.6390    -0.7210 o          1 QE0      -0.604100
     23 N17          9.0550   -33.5780    -5.0290 nc         1 QE0      -0.364300
     24 O18          7.9230   -33.1360    -4.2470 os         1 QE0      -0.109700
     25 N20          6.5580   -35.2530     3.2670 ns         1 QE0      -0.499900
     26 O21          4.9870   -34.5000     1.7750 o          1 QE0      -0.594100
     27 C23          6.3060   -37.2350     4.7050 c3         1 QE0      -0.100100
     28 C25          3.8670   -34.8900     5.6950 ca         1 QE0       0.164100
     29 C26          3.5030   -34.0340     6.7570 ca         1 QE0      -0.189000
     30 C28          5.8380   -33.4530     7.1040 ca         1 QE0      -0.140000
     31 C29          6.2090   -34.3020     6.0500 ca         1 QE0      -0.062000
     32 O31          2.9220   -35.6150     4.9960 os         1 QE0      -0.360100
     33 O34          0.5380   -35.7500     2.9880 os         1 QE0      -0.463000
     34 H1           8.2300   -32.6820     3.0780 hc         1 QE0       0.067700
     35 H2           6.7970   -32.0080     2.3030 hc         1 QE0       0.067700
     36 H3           8.2540   -34.6430     1.5160 h1         1 QE0       0.073700
     37 H4           6.3620   -32.8230    -2.2830 hc         1 QE0       0.080700
     38 H5           4.3980   -34.4430    -2.0730 hc         1 QE0       0.051700
     39 H6           5.5280   -36.5860    -2.7610 hc         1 QE0       0.043033
     40 H7           4.1320   -36.2030    -3.7730 hc         1 QE0       0.043033
     41 H8           5.7670   -35.9240    -4.3910 hc         1 QE0       0.043033
     42 H9           3.4920   -33.8040    -4.2790 hc         1 QE0       0.043033
     43 H10          4.3700   -32.4540    -3.5410 hc         1 QE0       0.043033
     44 H11          5.1190   -33.3890    -4.8550 hc         1 QE0       0.043033
     45 H12          8.5040   -36.0730    -2.9390 ha         1 QE0       0.163000
     46 H13         10.3320   -35.7760    -6.1690 hc         1 QE0       0.055700
     47 H14         11.4290   -35.0480    -4.9800 hc         1 QE0       0.055700
     48 H15         10.5650   -36.5440    -4.5900 hc         1 QE0       0.055700
     49 H16          4.7660   -36.2440     3.6090 h1         1 QE0       0.090700
     50 H17          1.2880   -35.8510     6.2780 h1         1 QE0       0.049200
     51 H18          1.1570   -34.4780     5.1510 h1         1 QE0       0.049200
     52 H19         -0.2300   -36.6670     4.6990 h1         1 QE0       0.056200
     53 H20          1.2880   -37.3660     4.1240 h1         1 QE0       0.056200
     54 H21          1.4410   -35.1040     1.2140 h1         1 QE0       0.037700
     55 H22          2.3270   -34.6850     2.6880 h1         1 QE0       0.037700
     56 H23          2.3370   -36.3640     2.0880 h1         1 QE0       0.037700
     57 H24          8.4550   -32.2150    -1.1360 h1         1 QE0       0.067200
     58 H25          7.0040   -31.4530    -0.4400 h1         1 QE0       0.067200
     59 H26          8.6080   -30.7760     1.2130 h1         1 QE0       0.057700
     60 H27         10.3520   -32.0850     1.8490 ho         1 QE0       0.445000
     61 H28          7.5490   -35.2590     3.4740 hn         1 QE0       0.314500
     62 H29          5.6130   -37.7730     5.3630 hc         1 QE0       0.047033
     63 H30          6.5690   -37.8970     3.8720 hc         1 QE0       0.047033
     64 H31          7.2180   -37.0140     5.2730 hc         1 QE0       0.047033
     65 H32          2.4680   -33.9120     7.0580 ha         1 QE0       0.135000
     66 H33          6.5970   -32.8990     7.6510 ha         1 QE0       0.131000
     67 H34          7.2610   -34.3990     5.7920 ha         1 QE0       0.113000
     68 C8           6.8110   -34.4420    -0.9730 c          1 QE0       0.624100
     69 Cl30         4.0260   -32.2570     8.7760 cl         1 QE0      -0.213000
@<TRIPOS>BOND
     1     1     2 1   
     2     1    20 1   
     3     1    34 1   
     4     1    35 1   
     5     2     3 1   
     6     2    18 1   
     7     2    36 1   
     8     3    25 1   
     9     3    26 2   
    10     4     5 1   
    11     4     6 1   
    12     4    37 1   
    13     4    68 1   
    14     5     7 1   
    15     5     8 1   
    16     5    38 1   
    17     6     9 2   
    18     6    24 1   
    19     7    39 1   
    20     7    40 1   
    21     7    41 1   
    22     8    42 1   
    23     8    43 1   
    24     8    44 1   
    25     9    10 1   
    26     9    45 1   
    27    10    11 1   
    28    10    23 2   
    29    11    46 1   
    30    11    47 1   
    31    11    48 1   
    32    12    13 1   
    33    12    25 1   
    34    12    27 1   
    35    12    49 1   
    36    13    28 ar  
    37    13    31 ar  
    38    14    29 ar  
    39    14    30 ar  
    40    14    69 1   
    41    15    16 1   
    42    15    32 1   
    43    15    50 1   
    44    15    51 1   
    45    16    33 1   
    46    16    52 1   
    47    16    53 1   
    48    17    33 1   
    49    17    54 1   
    50    17    55 1   
    51    17    56 1   
    52    18    19 1   
    53    18    68 1   
    54    19    20 1   
    55    19    57 1   
    56    19    58 1   
    57    20    21 1   
    58    20    59 1   
    59    21    60 1   
    60    22    68 2   
    61    23    24 1   
    62    25    61 1   
    63    27    62 1   
    64    27    63 1   
    65    27    64 1   
    66    28    29 ar  
    67    28    32 1   
    68    29    65 1   
    69    30    31 ar  
    70    30    66 1   
    71    31    67 1   
@<TRIPOS>SUBSTRUCTURE
     1 QE0         1 TEMP              0 ****  ****    0 ROOT
