@<TRIPOS>MOLECULE
QE2
   39    41     1     0     0
SMALL
abcg2


@<TRIPOS>ATOM
      1 CAK        -36.6990    15.5010    32.0800 ca         1 QE2       0.027000
      2 CAU        -36.7320    16.8870    32.1560 ca         1 QE2      -0.080300
      3 CAO        -35.5450    17.6220    32.7250 c6         1 QE2      -0.024100
      4 CAM        -35.5320    19.0990    32.3580 c6         1 QE2      -0.073400
      5 CAL        -36.8960    19.7150    32.6320 c6         1 QE2      -0.070400
      6 CAN        -37.9530    19.0700    31.7460 c6         1 QE2      -0.036100
      7 CAT        -37.8740    17.5670    31.7160 ca         1 QE2      -0.009300
      8 CAH        -38.9500    16.8380    31.2110 ca         1 QE2      -0.132000
      9 CAG        -38.9200    15.4580    31.1340 ca         1 QE2      -0.006000
     10 CAS        -37.7820    14.8000    31.5760 ca         1 QE2      -0.255500
     11 SAX        -37.7070    13.0390    31.5440 sy         1 QE2       1.148600
     12 OAB        -37.0280    12.5580    32.7380 o          1 QE2      -0.577000
     13 OAC        -39.0480    12.5460    31.2580 o          1 QE2      -0.577000
     14 NAP        -36.6520    12.7430    30.2970 nu         1 QE2      -0.862100
     15 CAV        -37.1080    12.9140    28.9580 ca         1 QE2       0.221000
     16 CAI        -37.9040    11.9240    28.3850 ca         1 QE2      -0.111000
     17 CAF        -38.3710    12.0390    27.0870 ca         1 QE2      -0.180000
     18 CAR        -38.0530    13.1900    26.3920 ca         1 QE2       0.148000
     19 FAE        -38.5040    13.3310    25.1340 f          1 QE2      -0.204000
     20 CAJ        -37.2900    14.1970    26.9430 ca         1 QE2      -0.135000
     21 CAW        -36.7760    14.0620    28.2330 ca         1 QE2      -0.068600
     22 CAQ        -35.8290    15.1650    28.7220 c          1 QE2       0.720600
     23 OAD        -36.2020    16.3270    28.4800 o          1 QE2      -0.701500
     24 OAA        -34.7680    14.7900    29.2430 o          1 QE2      -0.701500
     25 H1         -35.8140    14.9740    32.4180 ha         1 QE2       0.133000
     26 H2         -34.6250    17.1340    32.3950 hc         1 QE2       0.046700
     27 H3         -35.5630    17.5240    33.8160 hc         1 QE2       0.046700
     28 H4         -35.2820    19.2170    31.2990 hc         1 QE2       0.044200
     29 H5         -34.7530    19.6110    32.9250 hc         1 QE2       0.044200
     30 H6         -36.8810    20.7920    32.4570 hc         1 QE2       0.028700
     31 H7         -37.1540    19.5720    33.6860 hc         1 QE2       0.028700
     32 H8         -37.8360    19.4360    30.7210 hc         1 QE2       0.048200
     33 H9         -38.9560    19.3740    32.0570 hc         1 QE2       0.048200
     34 H10        -39.8320    17.3670    30.8700 ha         1 QE2       0.100000
     35 H11        -39.7670    14.9140    30.7410 ha         1 QE2       0.129000
     36 H12        -36.1190    11.8970    30.4730 hn         1 QE2       0.484000
     37 H13        -38.1540    11.0420    28.9600 ha         1 QE2       0.102000
     38 H14        -38.9730    11.2620    26.6360 ha         1 QE2       0.111000
     39 H15        -37.0720    15.0830    26.3620 ha         1 QE2       0.143000
@<TRIPOS>BOND
     1     1     2 ar  
     2     1    10 ar  
     3     1    25 1   
     4     2     3 1   
     5     2     7 ar  
     6     3     4 1   
     7     3    26 1   
     8     3    27 1   
     9     4     5 1   
    10     4    28 1   
    11     4    29 1   
    12     5     6 1   
    13     5    30 1   
    14     5    31 1   
    15     6     7 1   
    16     6    32 1   
    17     6    33 1   
    18     7     8 ar  
    19     8     9 ar  
    20     8    34 1   
    21     9    10 ar  
    22     9    35 1   
    23    10    11 1   
    24    11    12 2   
    25    11    13 2   
    26    11    14 1   
    27    14    15 1   
    28    14    36 1   
    29    15    16 ar  
    30    15    21 ar  
    31    16    17 ar  
    32    16    37 1   
    33    17    18 ar  
    34    17    38 1   
    35    18    19 1   
    36    18    20 ar  
    37    20    21 ar  
    38    20    39 1   
    39    21    22 1   
    40    22    23 1   
    41    22    24 1   
@<TRIPOS>SUBSTRUCTURE
     1 QE2         1 TEMP              0 ****  ****    0 ROOT
