@<TRIPOS>MOLECULE
QE2
   39    41     1     0     0
SMALL
No Charge or Current Charge


@<TRIPOS>ATOM
      1 CAK        -36.5780    15.4940    32.2070 ca         1 QE2       0.027000
      2 CAU        -36.7040    16.8970    32.1770 ca         1 QE2      -0.080300
      3 CAO        -35.6000    17.7550    32.8100 c6         1 QE2      -0.024100
      4 CAM        -35.6510    19.2390    32.3840 c6         1 QE2      -0.073400
      5 CAL        -37.0920    19.7800    32.4780 c6         1 QE2      -0.070400
      6 CAN        -38.0240    19.0080    31.5180 c6         1 QE2      -0.036100
      7 CAT        -37.8490    17.4860    31.5850 ca         1 QE2      -0.009300
      8 CAH        -38.8390    16.6610    31.0190 ca         1 QE2      -0.132000
      9 CAG        -38.7090    15.2630    31.0490 ca         1 QE2      -0.006000
     10 CAS        -37.5790    14.6770    31.6480 ca         1 QE2      -0.255500
     11 SAX        -37.4110    12.8900    31.6890 sy         1 QE2       1.148600
     12 OAB        -36.4110    12.4910    32.6830 o          1 QE2      -0.577000
     13 OAC        -38.7270    12.2520    31.6130 o          1 QE2      -0.577000
     14 NAP        -36.6950    12.4600    30.2340 nu         1 QE2      -0.862100
     15 CAV        -37.1570    12.8490    28.9800 ca         1 QE2       0.221000
     16 CAI        -38.1640    12.0690    28.3740 ca         1 QE2      -0.111000
     17 CAF        -38.7000    12.4290    27.1260 ca         1 QE2      -0.180000
     18 CAR        -38.2280    13.5740    26.4730 ca         1 QE2       0.148000
     19 FAE        -38.7430    13.9240    25.2750 f          1 QE2      -0.204000
     20 CAJ        -37.2170    14.3510    27.0530 ca         1 QE2      -0.135000
     21 CAW        -36.6620    13.9950    28.3060 ca         1 QE2      -0.068600
     22 CAQ        -35.5410    14.8390    28.8670 c          1 QE2       0.720600
     23 OAD        -35.6740    16.0550    28.8280 o          1 QE2      -0.701500
     24 OAA        -34.4780    14.2970    29.1430 o          1 QE2      -0.701500
     25 H1         -35.6990    15.0460    32.6640 ha         1 QE2       0.133000
     26 H2         -34.6130    17.3410    32.5600 hc         1 QE2       0.046700
     27 H3         -35.6890    17.6910    33.9030 hc         1 QE2       0.046700
     28 H4         -35.2840    19.3430    31.3540 hc         1 QE2       0.044200
     29 H5         -34.9800    19.8340    33.0190 hc         1 QE2       0.044200
     30 H6         -37.1120    20.8520    32.2380 hc         1 QE2       0.028700
     31 H7         -37.4570    19.6810    33.5100 hc         1 QE2       0.028700
     32 H8         -37.8300    19.3370    30.4870 hc         1 QE2       0.048200
     33 H9         -39.0670    19.2760    31.7320 hc         1 QE2       0.048200
     34 H10        -39.7140    17.1050    30.5520 ha         1 QE2       0.100000
     35 H11        -39.4850    14.6420    30.6030 ha         1 QE2       0.129000
     36 H12        -36.6610    11.4570    30.3480 hn         1 QE2       0.484000
     37 H13        -38.5450    11.1860    28.8800 ha         1 QE2       0.102000
     38 H14        -39.4820    11.8260    26.6710 ha         1 QE2       0.111000
     39 H15        -36.8520    15.2280    26.5250 ha         1 QE2       0.143000
@<TRIPOS>BOND
     1     1     2 ar  
     2     1    10 ar  
     3     1    25 1   
     4     2     3 1   
     5     2     7 ar  
     6     3     4 1   
     7     3    26 1   
     8     3    27 1   
     9     4     5 1   
    10     4    28 1   
    11     4    29 1   
    12     5     6 1   
    13     5    30 1   
    14     5    31 1   
    15     6     7 1   
    16     6    32 1   
    17     6    33 1   
    18     7     8 ar  
    19     8     9 ar  
    20     8    34 1   
    21     9    10 ar  
    22     9    35 1   
    23    10    11 1   
    24    11    12 2   
    25    11    13 2   
    26    11    14 1   
    27    14    15 1   
    28    14    36 1   
    29    15    16 ar  
    30    15    21 ar  
    31    16    17 ar  
    32    16    37 1   
    33    17    18 ar  
    34    17    38 1   
    35    18    19 1   
    36    18    20 ar  
    37    20    21 ar  
    38    20    39 1   
    39    21    22 1   
    40    22    23 1   
    41    22    24 1   
@<TRIPOS>SUBSTRUCTURE
     1 QE2         1 TEMP              0 ****  ****    0 ROOT
