@<TRIPOS>MOLECULE
QE3
   33    35     1     0     0
SMALL
abcg2


@<TRIPOS>ATOM
      1 N1         -16.6800     4.2280    26.1320 nb         1 QE3      -0.654000
      2 C4         -22.1470     5.8700    27.8430 c3         1 QE3      -0.206700
      3 C5         -20.6620     6.1280    27.6050 c          1 QE3       0.598100
      4 C6         -18.7380     5.4690    26.2440 ca         1 QE3      -0.077000
      5 C7         -18.0040     4.3230    26.4120 ca         1 QE3       0.308900
      6 C8         -16.0690     5.3040    25.6910 ca         1 QE3       0.359900
      7 C10        -16.0190     7.6740    24.9770 ca         1 QE3      -0.085000
      8 C13        -18.7750     7.8560    25.4860 ca         1 QE3      -0.085000
      9 C15        -22.4620     4.2630    31.1210 ca         1 QE3       0.358900
     10 O          -20.0060     6.8600    28.3330 o          1 QE3      -0.555100
     11 C3         -22.3250     4.7970    28.8880 ca         1 QE3       0.347300
     12 C2         -22.4240     3.4540    28.5250 ca         1 QE3      -0.154000
     13 C1         -22.5420     2.4870    29.5100 ca         1 QE3      -0.062000
     14 N2         -22.3470     5.1860    30.1680 nb         1 QE3      -0.640000
     15 C          -22.5580     2.9080    30.8310 ca         1 QE3       0.064000
     16 CL         -22.7080     1.7530    32.1290 cl         1 QE3      -0.186000
     17 N          -20.1260     5.4610    26.5500 ns         1 QE3      -0.173000
     18 C14        -18.1070     6.6370    25.7420 ca         1 QE3      -0.001000
     19 C12        -18.0770     8.9330    24.9990 ca         1 QE3      -0.092000
     20 C11        -16.6890     8.8470    24.7490 ca         1 QE3      -0.106000
     21 C9         -16.7140     6.5440    25.4710 ca         1 QE3      -0.091000
     22 H1         -22.5860     6.8000    28.1970 hc         1 QE3       0.080700
     23 H2         -22.6340     5.5730    26.9150 hc         1 QE3       0.080700
     24 H3         -18.4860     3.4290    26.7900 h4         1 QE3       0.020100
     25 H4         -15.0060     5.2220    25.4820 h4         1 QE3       0.022100
     26 H5         -14.9570     7.5910    24.7820 ha         1 QE3       0.118000
     27 H6         -19.8360     7.9330    25.6730 ha         1 QE3       0.123000
     28 H8         -22.4080     3.1700    27.4800 ha         1 QE3       0.121000
     29 H9         -22.6220     1.4380    29.2600 ha         1 QE3       0.137000
     30 H10        -20.7070     4.8010    26.0530 hn         1 QE3       0.153000
     31 H11        -18.5950     9.8630    24.8020 ha         1 QE3       0.117000
     32 H12        -16.1600     9.7130    24.3700 ha         1 QE3       0.117000
     33 H7         -22.4810     4.6060    32.1490 h4         1 QE3       0.040100
@<TRIPOS>BOND
     1     1     5 ar  
     2     1     6 ar  
     3     2     3 1   
     4     2    11 1   
     5     2    22 1   
     6     2    23 1   
     7     3    10 2   
     8     3    17 1   
     9     4     5 ar  
    10     4    17 1   
    11     4    18 ar  
    12     5    24 1   
    13     6    21 ar  
    14     6    25 1   
    15     7    20 ar  
    16     7    21 ar  
    17     7    26 1   
    18     8    18 ar  
    19     8    19 ar  
    20     8    27 1   
    21     9    14 ar  
    22     9    15 ar  
    23     9    33 1   
    24    11    12 ar  
    25    11    14 ar  
    26    12    13 ar  
    27    12    28 1   
    28    13    15 ar  
    29    13    29 1   
    30    15    16 1   
    31    17    30 1   
    32    18    21 ar  
    33    19    20 ar  
    34    19    31 1   
    35    20    32 1   
@<TRIPOS>SUBSTRUCTURE
     1 QE3         1 TEMP              0 ****  ****    0 ROOT
