@<TRIPOS>MOLECULE
QE3
   33    35     1     0     0
SMALL
No Charge or Current Charge


@<TRIPOS>ATOM
      1 N1         -16.7450     4.1080    25.5490 nb         1 QE3      -0.654000
      2 C4         -22.1550     5.7590    27.7750 c3         1 QE3      -0.206700
      3 C5         -20.6680     6.0320    27.5940 c          1 QE3       0.598100
      4 C6         -18.7340     5.4180    26.0640 ca         1 QE3      -0.077000
      5 C7         -18.0330     4.1990    25.9480 ca         1 QE3       0.308900
      6 C8         -16.1030     5.2570    25.2370 ca         1 QE3       0.359900
      7 C10        -16.0000     7.6800    24.9320 ca         1 QE3      -0.085000
      8 C13        -18.6930     7.8840    25.7180 ca         1 QE3      -0.085000
      9 C15        -23.1060     4.4170    31.0750 ca         1 QE3       0.358900
     10 O          -20.0450     6.7630    28.3550 o          1 QE3      -0.555100
     11 C3         -22.3480     4.7800    28.9100 ca         1 QE3       0.347300
     12 C2         -21.9710     3.4280    28.7770 ca         1 QE3      -0.154000
     13 C1         -22.1730     2.5460    29.8540 ca         1 QE3      -0.062000
     14 N2         -22.9120     5.2710    30.0360 nb         1 QE3      -0.640000
     15 C          -22.7520     3.0530    31.0280 ca         1 QE3       0.064000
     16 Cl         -23.0310     1.9950    32.4100 cl         1 QE3      -0.186000
     17 N          -20.0790     5.3770    26.5240 ns         1 QE3      -0.173000
     18 C14        -18.0660     6.6170    25.7070 ca         1 QE3      -0.001000
     19 C12        -17.9740     9.0350    25.3540 ca         1 QE3      -0.092000
     20 C11        -16.6280     8.9350    24.9660 ca         1 QE3      -0.106000
     21 C9         -16.7180     6.5230    25.2940 ca         1 QE3      -0.091000
     22 H1         -22.6600     6.7050    27.9990 hc         1 QE3       0.080700
     23 H2         -22.5750     5.3270    26.8600 hc         1 QE3       0.080700
     24 H3         -18.5200     3.2580    26.2020 h4         1 QE3       0.020100
     25 H4         -15.0660     5.1550    24.9190 h4         1 QE3       0.022100
     26 H5         -14.9600     7.6070    24.6180 ha         1 QE3       0.118000
     27 H6         -19.7370     7.9920    25.9950 ha         1 QE3       0.123000
     28 H8         -21.5300     3.0670    27.8520 ha         1 QE3       0.121000
     29 H9         -21.8900     1.4980    29.7800 ha         1 QE3       0.137000
     30 H10        -20.6900     4.7590    26.0050 hn         1 QE3       0.153000
     31 H11        -18.4630    10.0070    25.3680 ha         1 QE3       0.117000
     32 H12        -16.0750     9.8280    24.6840 ha         1 QE3       0.117000
     33 H7         -23.5600     4.8390    31.9700 h4         1 QE3       0.040100
@<TRIPOS>BOND
     1     1     5 ar  
     2     1     6 ar  
     3     2     3 1   
     4     2    11 1   
     5     2    22 1   
     6     2    23 1   
     7     3    10 2   
     8     3    17 1   
     9     4     5 ar  
    10     4    17 1   
    11     4    18 ar  
    12     5    24 1   
    13     6    21 ar  
    14     6    25 1   
    15     7    20 ar  
    16     7    21 ar  
    17     7    26 1   
    18     8    18 ar  
    19     8    19 ar  
    20     8    27 1   
    21     9    14 ar  
    22     9    15 ar  
    23     9    33 1   
    24    11    12 ar  
    25    11    14 ar  
    26    12    13 ar  
    27    12    28 1   
    28    13    15 ar  
    29    13    29 1   
    30    15    16 1   
    31    17    30 1   
    32    18    21 ar  
    33    19    20 ar  
    34    19    31 1   
    35    20    32 1   
@<TRIPOS>SUBSTRUCTURE
     1 QE3         1 TEMP              0 ****  ****    0 ROOT
