@<TRIPOS>MOLECULE
QE4
   80    83     1     0     0
SMALL
No Charge or Current Charge


@<TRIPOS>ATOM
      1 C01          1.7010    -1.8870    -2.5110 c3         1 QE4      -0.109767
      2 C02          0.4290    -1.5000    -1.7140 c3         1 QE4       0.225000
      3 C03         -0.5850    -0.6750    -2.5470 c3         1 QE4      -0.109767
      4 C04         -0.2520    -2.7740    -1.1700 c3         1 QE4      -0.109767
      5 C06          1.4830     0.4290    -0.5950 c          1 QE4       0.650100
      6 C09          2.4380     2.0610     1.0810 c3         1 QE4       0.151700
      7 C10          1.6790     3.3450     0.6460 c3         1 QE4       0.018600
      8 C12         -1.0860     2.5970     0.3830 c3         1 QE4      -0.019700
      9 C13         -1.9090     3.5700    -0.4880 c3         1 QE4      -0.021100
     10 C14         -2.6320     2.8290    -1.6060 ca         1 QE4      -0.094300
     11 C15         -3.9450     2.3560    -1.4170 ca         1 QE4      -0.108500
     12 C16         -4.5940     1.6380    -2.4360 ca         1 QE4      -0.113500
     13 C17         -3.9350     1.3940    -3.6530 ca         1 QE4      -0.111000
     14 C18         -2.6270     1.8680    -3.8490 ca         1 QE4      -0.113500
     15 C19         -1.9770     2.5810    -2.8280 ca         1 QE4      -0.108500
     16 C20         -1.9860     1.6070     1.1560 c          1 QE4       0.615100
     17 C23         -2.5000    -0.8350     1.4730 c3         1 QE4       0.104000
     18 C24         -3.7450    -1.0920     0.6010 c3         1 QE4      -0.055100
     19 C25         -4.5440    -2.2920     1.0900 ca         1 QE4      -0.132300
     20 C26         -5.6060    -2.1290     2.0050 ca         1 QE4       0.342900
     21 C28         -6.0420    -4.4050     2.0380 ca         1 QE4       0.333900
     22 C29         -5.0020    -4.6610     1.1290 ca         1 QE4      -0.164000
     23 C30         -4.2350    -3.5900     0.6420 ca         1 QE4      -0.075000
     24 C31          3.9230     2.0690     0.6320 c3         1 QE4      -0.052100
     25 C32          4.6940     0.8270     1.1090 ca         1 QE4      -0.063300
     26 C33          5.1000    -0.2470     0.2600 ca         1 QE4      -0.021000
     27 C34          4.8470    -0.2610    -1.1350 ca         1 QE4      -0.098000
     28 C35          5.2600    -1.3410    -1.9320 ca         1 QE4      -0.113000
     29 C36          5.9310    -2.4290    -1.3580 ca         1 QE4      -0.107000
     30 C37          6.1940    -2.4340     0.0190 ca         1 QE4      -0.101000
     31 C38          5.7860    -1.3540     0.8260 ca         1 QE4      -0.037000
     32 C39          6.0690    -1.3920     2.2020 ca         1 QE4      -0.098000
     33 C40          5.6760    -0.3330     3.0300 ca         1 QE4      -0.106000
     34 C41          4.9950     0.7640     2.4850 ca         1 QE4      -0.115000
     35 N08          1.7500     0.8250     0.6840 ns         1 QE4      -0.490900
     36 N22         -1.6990     0.2730     0.9520 ns         1 QE4      -0.496900
     37 N27         -6.3460    -3.1610     2.4760 nb         1 QE4      -0.663000
     38 O05          0.8080    -0.7590    -0.5300 os         1 QE4      -0.473100
     39 O07          1.7660     1.0600    -1.5980 o          1 QE4      -0.579000
     40 O21         -2.8990     1.9660     1.8900 o          1 QE4      -0.585100
     41 S11          0.0510     3.5280     1.5260 ss         1 QE4      -0.364000
     42 H1           2.4520    -2.3330    -1.8480 hc         1 QE4       0.049256
     43 H2           1.4570    -2.6210    -3.2870 hc         1 QE4       0.049256
     44 H3           2.1510    -1.0230    -3.0120 hc         1 QE4       0.049256
     45 H4          -1.0460    -1.3030    -3.3170 hc         1 QE4       0.049256
     46 H5          -1.3860    -0.2800    -1.9120 hc         1 QE4       0.049256
     47 H6          -0.1050     0.1640    -3.0610 hc         1 QE4       0.049256
     48 H7           0.4280    -3.3290    -0.5110 hc         1 QE4       0.049256
     49 H8          -1.1530    -2.5240    -0.6000 hc         1 QE4       0.049256
     50 H9          -0.5470    -3.4390    -1.9900 hc         1 QE4       0.049256
     51 H10          2.4470     2.0660     2.1790 h1         1 QE4       0.061700
     52 H11          2.2930     4.2170     0.9070 h1         1 QE4       0.082700
     53 H12          1.5260     3.3620    -0.4400 h1         1 QE4       0.082700
     54 H13         -0.4730     2.0070    -0.3020 h1         1 QE4       0.085700
     55 H14         -2.6180     4.1220     0.1410 hc         1 QE4       0.067200
     56 H15         -1.2350     4.3210    -0.9180 hc         1 QE4       0.067200
     57 H16         -4.4630     2.5360    -0.4770 ha         1 QE4       0.122000
     58 H17         -5.6060     1.2710    -2.2830 ha         1 QE4       0.114500
     59 H18         -4.4370     0.8380    -4.4420 ha         1 QE4       0.113000
     60 H19         -2.1150     1.6770    -4.7900 ha         1 QE4       0.114500
     61 H20         -0.9590     2.9330    -2.9840 ha         1 QE4       0.122000
     62 H21         -2.8070    -0.6090     2.5030 h1         1 QE4       0.059200
     63 H22         -1.8750    -1.7370     1.4990 h1         1 QE4       0.059200
     64 H23         -4.3750    -0.1940     0.5970 hc         1 QE4       0.059200
     65 H24         -3.4300    -1.2480    -0.4380 hc         1 QE4       0.059200
     66 H25         -5.8710    -1.1390     2.3750 h4         1 QE4       0.025100
     67 H26         -6.6500    -5.2200     2.4300 h4         1 QE4       0.018100
     68 H27         -4.7980    -5.6790     0.8100 ha         1 QE4       0.122000
     69 H28         -3.4240    -3.7640    -0.0620 ha         1 QE4       0.115000
     70 H29          3.9810     2.2250    -0.4470 hc         1 QE4       0.063700
     71 H30          4.3990     2.9600     1.0590 hc         1 QE4       0.063700
     72 H31          4.3330     0.5520    -1.6310 ha         1 QE4       0.126000
     73 H32          5.0560    -1.3340    -3.0010 ha         1 QE4       0.112000
     74 H33          6.2480    -3.2640    -1.9780 ha         1 QE4       0.112000
     75 H34          6.7170    -3.2800     0.4590 ha         1 QE4       0.112000
     76 H35          6.5950    -2.2410     2.6330 ha         1 QE4       0.114000
     77 H36          5.8970    -0.3640     4.0940 ha         1 QE4       0.114000
     78 H37          4.6950     1.5750     3.1450 ha         1 QE4       0.108000
     79 H38          1.4790     0.1710     1.4060 hn         1 QE4       0.337500
     80 H39         -0.9140     0.0530     0.3480 hn         1 QE4       0.315500
@<TRIPOS>BOND
     1     1     2 1   
     2     1    42 1   
     3     1    43 1   
     4     1    44 1   
     5     2     3 1   
     6     2     4 1   
     7     2    38 1   
     8     3    45 1   
     9     3    46 1   
    10     3    47 1   
    11     4    48 1   
    12     4    49 1   
    13     4    50 1   
    14     5    35 1   
    15     5    38 1   
    16     5    39 2   
    17     6     7 1   
    18     6    24 1   
    19     6    35 1   
    20     6    51 1   
    21     7    41 1   
    22     7    52 1   
    23     7    53 1   
    24     8     9 1   
    25     8    16 1   
    26     8    41 1   
    27     8    54 1   
    28     9    10 1   
    29     9    55 1   
    30     9    56 1   
    31    10    11 ar  
    32    10    15 ar  
    33    11    12 ar  
    34    11    57 1   
    35    12    13 ar  
    36    12    58 1   
    37    13    14 ar  
    38    13    59 1   
    39    14    15 ar  
    40    14    60 1   
    41    15    61 1   
    42    16    36 1   
    43    16    40 2   
    44    17    18 1   
    45    17    36 1   
    46    17    62 1   
    47    17    63 1   
    48    18    19 1   
    49    18    64 1   
    50    18    65 1   
    51    19    20 ar  
    52    19    23 ar  
    53    20    37 ar  
    54    20    66 1   
    55    21    22 ar  
    56    21    37 ar  
    57    21    67 1   
    58    22    23 ar  
    59    22    68 1   
    60    23    69 1   
    61    24    25 1   
    62    24    70 1   
    63    24    71 1   
    64    25    26 ar  
    65    25    34 ar  
    66    26    27 ar  
    67    26    31 ar  
    68    27    28 ar  
    69    27    72 1   
    70    28    29 ar  
    71    28    73 1   
    72    29    30 ar  
    73    29    74 1   
    74    30    31 ar  
    75    30    75 1   
    76    31    32 ar  
    77    32    33 ar  
    78    32    76 1   
    79    33    34 ar  
    80    33    77 1   
    81    34    78 1   
    82    35    79 1   
    83    36    80 1   
@<TRIPOS>SUBSTRUCTURE
     1 QE4         1 TEMP              0 ****  ****    0 ROOT
