@<TRIPOS>MOLECULE
QE4
   80    83     1     0     0
SMALL
abcg2


@<TRIPOS>ATOM
      1 C01          2.3410    -2.1700    -2.6070 c3         1 QE4      -0.109767
      2 C02          1.3280    -2.2440    -1.4710 c3         1 QE4       0.225000
      3 C03         -0.0600    -1.8010    -1.9150 c3         1 QE4      -0.109767
      4 C04          1.2630    -3.6700    -0.9350 c3         1 QE4      -0.109767
      5 C06          1.9600    -0.1610    -0.3520 c          1 QE4       0.650100
      6 C09          2.6510     1.6570     1.1850 c3         1 QE4       0.151700
      7 C10          1.4900     2.6270     0.9600 c3         1 QE4       0.018600
      8 C12         -1.1030     1.6130     0.5560 c3         1 QE4      -0.019700
      9 C13         -1.6980     2.7940    -0.2260 c3         1 QE4      -0.021100
     10 C14         -2.5390     2.3210    -1.3790 ca         1 QE4      -0.094300
     11 C15         -3.9270     2.3980    -1.3370 ca         1 QE4      -0.108500
     12 C16         -4.6980     1.9030    -2.3810 ca         1 QE4      -0.113500
     13 C17         -4.0880     1.3160    -3.4810 ca         1 QE4      -0.111000
     14 C18         -2.7010     1.2350    -3.5340 ca         1 QE4      -0.113500
     15 C19         -1.9340     1.7370    -2.4920 ca         1 QE4      -0.108500
     16 C20         -2.2020     0.8070     1.2250 c          1 QE4       0.615100
     17 C23         -3.7100    -1.1110     0.9680 c3         1 QE4       0.104000
     18 C24         -5.0710    -0.5820     0.5060 c3         1 QE4      -0.055100
     19 C25         -6.1730    -1.5080     0.9270 ca         1 QE4      -0.132300
     20 C26         -6.8400    -1.3340     2.1360 ca         1 QE4       0.342900
     21 C28         -8.1360    -3.1770     1.8300 ca         1 QE4       0.333900
     22 C29         -7.5420    -3.4500     0.6070 ca         1 QE4      -0.164000
     23 C30         -6.5450    -2.6010     0.1530 ca         1 QE4      -0.075000
     24 C31          3.9280     2.1860     0.5100 c3         1 QE4      -0.052100
     25 C32          5.1500     1.4050     0.9140 ca         1 QE4      -0.063300
     26 C33          5.7530     0.4170     0.0810 ca         1 QE4      -0.021000
     27 C34          5.2930     0.1200    -1.2260 ca         1 QE4      -0.098000
     28 C35          5.9040    -0.8310    -1.9970 ca         1 QE4      -0.113000
     29 C36          7.0180    -1.5440    -1.5080 ca         1 QE4      -0.107000
     30 C37          7.4950    -1.2800    -0.2550 ca         1 QE4      -0.101000
     31 C38          6.8850    -0.3000     0.5660 ca         1 QE4      -0.037000
     32 C39          7.3890    -0.0270     1.8570 ca         1 QE4      -0.098000
     33 C40          6.8000     0.9280     2.6380 ca         1 QE4      -0.106000
     34 C41          5.6850     1.6390     2.1570 ca         1 QE4      -0.115000
     35 N08          2.3550     0.2800     0.8570 ns         1 QE4      -0.490900
     36 N22         -2.6060    -0.2780     0.5480 ns         1 QE4      -0.496900
     37 N27         -7.7950    -2.1390     2.5840 nb         1 QE4      -0.663000
     38 O05          1.7740    -1.4810    -0.3190 os         1 QE4      -0.473100
     39 O07          1.7920     0.5510    -1.3260 o          1 QE4      -0.579000
     40 O21         -2.6700     1.1490     2.3000 o          1 QE4      -0.585100
     41 S11         -0.0010     2.1750     1.8920 ss         1 QE4      -0.364000
     42 H1           3.3400    -2.4290    -2.2530 hc         1 QE4       0.049256
     43 H2           2.0660    -2.8890    -3.3790 hc         1 QE4       0.049256
     44 H3           2.3810    -1.1850    -3.0670 hc         1 QE4       0.049256
     45 H4          -0.4340    -2.4860    -2.6760 hc         1 QE4       0.049256
     46 H5          -0.7570    -1.8370    -1.0750 hc         1 QE4       0.049256
     47 H6          -0.0640    -0.8000    -2.3400 hc         1 QE4       0.049256
     48 H7           2.2430    -4.0120    -0.5980 hc         1 QE4       0.049256
     49 H8           0.5630    -3.7520    -0.1020 hc         1 QE4       0.049256
     50 H9           0.9250    -4.3430    -1.7220 hc         1 QE4       0.049256
     51 H10          2.8430     1.6420     2.2600 h1         1 QE4       0.061700
     52 H11          1.7990     3.6120     1.3110 h1         1 QE4       0.082700
     53 H12          1.2450     2.7310    -0.0970 h1         1 QE4       0.082700
     54 H13         -0.5280     0.9890    -0.1290 h1         1 QE4       0.085700
     55 H14         -2.2810     3.4180     0.4540 hc         1 QE4       0.067200
     56 H15         -0.8720     3.4070    -0.5950 hc         1 QE4       0.067200
     57 H16         -4.4110     2.8450    -0.4770 ha         1 QE4       0.122000
     58 H17         -5.7770     1.9710    -2.3310 ha         1 QE4       0.114500
     59 H18         -4.6860     0.9260    -4.2930 ha         1 QE4       0.113000
     60 H19         -2.2160     0.7830    -4.3900 ha         1 QE4       0.114500
     61 H20         -0.8520     1.6730    -2.5440 ha         1 QE4       0.122000
     62 H21         -3.6900    -1.1980     2.0540 h1         1 QE4       0.059200
     63 H22         -3.5430    -2.1100     0.5640 h1         1 QE4       0.059200
     64 H23         -5.2350     0.4150     0.9200 hc         1 QE4       0.059200
     65 H24         -5.0650    -0.4770    -0.5810 hc         1 QE4       0.059200
     66 H25         -6.5850    -0.4900     2.7720 h4         1 QE4       0.025100
     67 H26         -8.9200    -3.8200     2.2140 h4         1 QE4       0.018100
     68 H27         -7.8590    -4.3050     0.0250 ha         1 QE4       0.122000
     69 H28         -6.0640    -2.7840    -0.8010 ha         1 QE4       0.115000
     70 H29          3.7900     2.2230    -0.5690 hc         1 QE4       0.063700
     71 H30          4.0580     3.2230     0.8300 hc         1 QE4       0.063700
     72 H31          4.4430     0.6490    -1.6330 ha         1 QE4       0.126000
     73 H32          5.5320    -1.0370    -2.9920 ha         1 QE4       0.112000
     74 H33          7.4920    -2.2930    -2.1270 ha         1 QE4       0.112000
     75 H34          8.3540    -1.8170     0.1290 ha         1 QE4       0.112000
     76 H35          8.2490    -0.5800     2.2150 ha         1 QE4       0.114000
     77 H36          7.1860     1.1440     3.6250 ha         1 QE4       0.114000
     78 H37          5.2380     2.3960     2.7910 ha         1 QE4       0.108000
     79 H38          2.4280    -0.3950     1.6000 hn         1 QE4       0.337500
     80 H39         -2.2550    -0.4170    -0.3860 hn         1 QE4       0.315500
@<TRIPOS>BOND
     1     1     2 1   
     2     1    42 1   
     3     1    43 1   
     4     1    44 1   
     5     2     3 1   
     6     2     4 1   
     7     2    38 1   
     8     3    45 1   
     9     3    46 1   
    10     3    47 1   
    11     4    48 1   
    12     4    49 1   
    13     4    50 1   
    14     5    35 1   
    15     5    38 1   
    16     5    39 2   
    17     6     7 1   
    18     6    24 1   
    19     6    35 1   
    20     6    51 1   
    21     7    41 1   
    22     7    52 1   
    23     7    53 1   
    24     8     9 1   
    25     8    16 1   
    26     8    41 1   
    27     8    54 1   
    28     9    10 1   
    29     9    55 1   
    30     9    56 1   
    31    10    11 ar  
    32    10    15 ar  
    33    11    12 ar  
    34    11    57 1   
    35    12    13 ar  
    36    12    58 1   
    37    13    14 ar  
    38    13    59 1   
    39    14    15 ar  
    40    14    60 1   
    41    15    61 1   
    42    16    36 1   
    43    16    40 2   
    44    17    18 1   
    45    17    36 1   
    46    17    62 1   
    47    17    63 1   
    48    18    19 1   
    49    18    64 1   
    50    18    65 1   
    51    19    20 ar  
    52    19    23 ar  
    53    20    37 ar  
    54    20    66 1   
    55    21    22 ar  
    56    21    37 ar  
    57    21    67 1   
    58    22    23 ar  
    59    22    68 1   
    60    23    69 1   
    61    24    25 1   
    62    24    70 1   
    63    24    71 1   
    64    25    26 ar  
    65    25    34 ar  
    66    26    27 ar  
    67    26    31 ar  
    68    27    28 ar  
    69    27    72 1   
    70    28    29 ar  
    71    28    73 1   
    72    29    30 ar  
    73    29    74 1   
    74    30    31 ar  
    75    30    75 1   
    76    31    32 ar  
    77    32    33 ar  
    78    32    76 1   
    79    33    34 ar  
    80    33    77 1   
    81    34    78 1   
    82    35    79 1   
    83    36    80 1   
@<TRIPOS>SUBSTRUCTURE
     1 QE4         1 TEMP              0 ****  ****    0 ROOT
