@<TRIPOS>MOLECULE
QE5
   35    36     1     0     0
SMALL
No Charge or Current Charge


@<TRIPOS>ATOM
      1 CAB        -33.8260   -30.1420   -15.2020 c3         1 QE5      -0.043800
      2 CAQ        -33.5950   -29.2990   -16.4540 ca         1 QE5      -0.090300
      3 CAL        -32.6090   -28.2910   -16.4340 ca         1 QE5       0.005000
      4 CAP        -34.3550   -29.5100   -17.6290 ca         1 QE5      -0.036300
      5 CAA        -35.4330   -30.5880   -17.6920 c3         1 QE5      -0.048800
      6 CAH        -34.1160   -28.7070   -18.7620 ca         1 QE5      -0.141000
      7 CAK        -33.1350   -27.7040   -18.7380 ca         1 QE5      -0.014000
      8 CAT        -32.3740   -27.4970   -17.5730 ca         1 QE5      -0.291500
      9 SAV        -31.1380   -26.1960   -17.5150 sy         1 QE5       1.128600
     10 OAD        -30.0720   -26.5670   -16.5850 o          1 QE5      -0.565000
     11 OAE        -30.8650   -25.6660   -18.8540 o          1 QE5      -0.565000
     12 NAN        -31.8790   -24.9430   -16.7000 nu         1 QE5      -0.875100
     13 CAS        -33.1880   -24.5030   -16.8460 ca         1 QE5       0.249000
     14 CAJ        -33.6910   -24.2190   -18.1330 ca         1 QE5      -0.122000
     15 CAI        -35.0130   -23.7780   -18.3100 ca         1 QE5      -0.156000
     16 CAR        -35.8400   -23.6140   -17.1940 ca         1 QE5       0.125000
     17 FAG        -37.1120   -23.1910   -17.3590 f          1 QE5      -0.203000
     18 CAM        -35.3540   -23.8800   -15.9070 ca         1 QE5      -0.108000
     19 CAU        -34.0220   -24.3260   -15.7070 ca         1 QE5      -0.150600
     20 CAO        -33.5410   -24.6010   -14.2880 c          1 QE5       0.719600
     21 OAF        -34.2120   -24.1730   -13.3600 o          1 QE5      -0.692500
     22 OAC        -32.5090   -25.2370   -14.1180 o          1 QE5      -0.692500
     23 H1         -33.6500   -31.2050   -15.4040 hc         1 QE5       0.041033
     24 H2         -33.1570   -29.8510   -14.3840 hc         1 QE5       0.041033
     25 H3         -34.8540   -30.0330   -14.8380 hc         1 QE5       0.041033
     26 H4         -32.0290   -28.1240   -15.5270 ha         1 QE5       0.147000
     27 H5         -35.0080   -31.5820   -17.5080 hc         1 QE5       0.038033
     28 H6         -36.2140   -30.4100   -16.9440 hc         1 QE5       0.038033
     29 H7         -35.9210   -30.6190   -18.6730 hc         1 QE5       0.038033
     30 H8         -34.6970   -28.8570   -19.6690 ha         1 QE5       0.100000
     31 H9         -32.9740   -27.0920   -19.6230 ha         1 QE5       0.131000
     32 H10        -31.6730   -25.1870   -15.7300 hn         1 QE5       0.567000
     33 H11        -33.0550   -24.3290   -19.0060 ha         1 QE5       0.131000
     34 H12        -35.3910   -23.5640   -19.3060 ha         1 QE5       0.111000
     35 H13        -36.0230   -23.7400   -15.0610 ha         1 QE5       0.147000
@<TRIPOS>BOND
     1     1     2 1   
     2     1    23 1   
     3     1    24 1   
     4     1    25 1   
     5     2     3 ar  
     6     2     4 ar  
     7     3     8 ar  
     8     3    26 1   
     9     4     5 1   
    10     4     6 ar  
    11     5    27 1   
    12     5    28 1   
    13     5    29 1   
    14     6     7 ar  
    15     6    30 1   
    16     7     8 ar  
    17     7    31 1   
    18     8     9 1   
    19     9    10 2   
    20     9    11 2   
    21     9    12 1   
    22    12    13 1   
    23    12    32 1   
    24    13    14 ar  
    25    13    19 ar  
    26    14    15 ar  
    27    14    33 1   
    28    15    16 ar  
    29    15    34 1   
    30    16    17 1   
    31    16    18 ar  
    32    18    19 ar  
    33    18    35 1   
    34    19    20 1   
    35    20    21 1   
    36    20    22 1   
@<TRIPOS>SUBSTRUCTURE
     1 QE5         1 TEMP              0 ****  ****    0 ROOT
