@<TRIPOS>MOLECULE
QE5
   35    36     1     0     0
SMALL
bcc


@<TRIPOS>ATOM
      1 CAB        -33.8030   -29.8940   -15.0940 c3         1 QE5      -0.043800
      2 CAQ        -33.5830   -29.1310   -16.3660 ca         1 QE5      -0.090300
      3 CAL        -32.5910   -28.1640   -16.4400 ca         1 QE5      -0.013000
      4 CAP        -34.3820   -29.3810   -17.4940 ca         1 QE5      -0.036300
      5 CAA        -35.4600   -30.4190   -17.4420 c3         1 QE5      -0.048800
      6 CAH        -34.1630   -28.6520   -18.6570 ca         1 QE5      -0.159000
      7 CAK        -33.1770   -27.6790   -18.7310 ca         1 QE5      -0.032000
      8 CAT        -32.3930   -27.4470   -17.6150 ca         1 QE5      -0.291500
      9 SAV        -31.1790   -26.1560   -17.6360 sy         1 QE5       1.270200
     10 OAD        -29.9790   -26.6040   -16.9460 o          1 QE5      -0.635800
     11 OAE        -31.0670   -25.6720   -19.0030 o          1 QE5      -0.635800
     12 NAN        -31.8040   -24.9550   -16.6840 nu         1 QE5      -0.681500
     13 CAS        -33.1380   -24.5360   -16.8990 ca         1 QE5       0.110600
     14 CAJ        -33.5160   -23.9480   -18.1040 ca         1 QE5      -0.140000
     15 CAI        -34.8200   -23.5290   -18.3080 ca         1 QE5      -0.174000
     16 CAR        -35.7330   -23.6920   -17.2850 ca         1 QE5       0.089900
     17 FAG        -37.0000   -23.2780   -17.4680 f          1 QE5      -0.167900
     18 CAM        -35.3820   -24.2600   -16.0800 ca         1 QE5      -0.126000
     19 CAU        -34.0770   -24.6970   -15.8680 ca         1 QE5      -0.150600
     20 CAO        -33.7280   -25.3090   -14.5120 c          1 QE5       0.930200
     21 OAF        -34.6670   -25.5820   -13.7590 o          1 QE5      -0.797800
     22 OAC        -32.5030   -25.4760   -14.2680 o          1 QE5      -0.797800
     23 H1         -33.6760   -30.9680   -15.2450 hc         1 QE5       0.041033
     24 H2         -33.1080   -29.5820   -14.3170 hc         1 QE5       0.041033
     25 H3         -34.8160   -29.7470   -14.7150 hc         1 QE5       0.041033
     26 H4         -31.9820   -27.9650   -15.5670 ha         1 QE5       0.165000
     27 H5         -35.0560   -31.4020   -17.1920 hc         1 QE5       0.038033
     28 H6         -36.2020   -30.1810   -16.6770 hc         1 QE5       0.038033
     29 H7         -35.9780   -30.5010   -18.3960 hc         1 QE5       0.038033
     30 H8         -34.7780   -28.8450   -19.5280 ha         1 QE5       0.118000
     31 H9         -33.0310   -27.1220   -19.6460 ha         1 QE5       0.149000
     32 H10        -31.7340   -25.2020   -15.6630 hn         1 QE5       0.511800
     33 H11        -32.7870   -23.8020   -18.8880 ha         1 QE5       0.149000
     34 H12        -35.1120   -23.0700   -19.2440 ha         1 QE5       0.129000
     35 H13        -36.1180   -24.3750   -15.2960 ha         1 QE5       0.165000
@<TRIPOS>BOND
     1     1     2 1   
     2     1    23 1   
     3     1    24 1   
     4     1    25 1   
     5     2     3 ar  
     6     2     4 ar  
     7     3     8 ar  
     8     3    26 1   
     9     4     5 1   
    10     4     6 ar  
    11     5    27 1   
    12     5    28 1   
    13     5    29 1   
    14     6     7 ar  
    15     6    30 1   
    16     7     8 ar  
    17     7    31 1   
    18     8     9 1   
    19     9    10 2   
    20     9    11 2   
    21     9    12 1   
    22    12    13 1   
    23    12    32 1   
    24    13    14 ar  
    25    13    19 ar  
    26    14    15 ar  
    27    14    33 1   
    28    15    16 ar  
    29    15    34 1   
    30    16    17 1   
    31    16    18 ar  
    32    18    19 ar  
    33    18    35 1   
    34    19    20 1   
    35    20    21 1   
    36    20    22 1   
@<TRIPOS>SUBSTRUCTURE
     1 QE5         1 TEMP              0 ****  ****    0 ROOT
