@<TRIPOS>MOLECULE
QE8
   49    50     1     0     0
SMALL
No Charge or Current Charge


@<TRIPOS>ATOM
      1 O3          20.6440     2.5040    17.1530 oh         1 QE8      -0.643000
      2 C4          18.7070     3.3950    18.3770 c6         1 QE8       0.139300
      3 C5          15.7070     7.0990    22.1380 c6         1 QE8      -0.049700
      4 O4          13.5320     7.4640    23.2670 oh         1 QE8      -0.725000
      5 C6          16.0300     8.6220    22.0280 c3         1 QE8       0.171600
      6 C7          17.0080     6.2410    22.1980 c6         1 QE8      -0.097400
      7 O6          16.0360     4.2620    21.0350 os         1 QE8      -0.481000
      8 C11         16.6990     4.7160    22.2500 c6         1 QE8       0.169300
      9 O8          16.5470     1.6360    20.9680 oh         1 QE8      -0.671000
     10 C1          18.3540     0.7080    19.6450 c6         1 QE8      -0.120400
     11 C51         17.8560     3.2410    19.6770 c6         1 QE8      -0.156700
     12 C61         16.7340     4.3300    19.7660 c3         1 QE8       0.157600
     13 O61         16.7740     9.1170    23.1510 oh         1 QE8      -0.663000
     14 C41         14.7830     6.7630    23.3490 c6         1 QE8       0.188300
     15 O41         19.3250     4.6970    18.3230 oh         1 QE8      -0.734000
     16 C3          19.8190     2.2990    18.3140 c6         1 QE8       0.180300
     17 C31         14.4810     5.2310    23.4320 c6         1 QE8       0.091300
     18 O31         13.6590     4.9540    24.5910 oh         1 QE8      -0.678000
     19 C2          19.2040     0.8600    18.3610 c6         1 QE8       0.175300
     20 C21         15.7910     4.3860    23.4800 c6         1 QE8       0.150300
     21 O2          18.3900     0.5730    17.2050 oh         1 QE8      -0.710000
     22 O21         16.4640     4.6170    24.7310 oh         1 QE8      -0.714000
     23 C71         17.2590     1.8000    19.7470 c6         1 QE8       0.190300
     24 H1          20.6970     3.4840    17.0750 ho         1 QE8       0.455000
     25 H2          18.0430     3.2580    17.5080 h1         1 QE8       0.060700
     26 H4          12.9440     6.9720    23.8900 ho         1 QE8       0.517000
     27 H5          16.6000     8.7840    21.1040 h1         1 QE8       0.024700
     28 H6          15.0880     9.1770    21.9250 h1         1 QE8       0.024700
     29 H7          17.6650     6.4780    21.3520 hc         1 QE8       0.063200
     30 H8          17.5870     6.5130    23.0920 hc         1 QE8       0.063200
     31 H9          17.6410     4.1630    22.3690 h1         1 QE8       0.064700
     32 H10         16.1750     2.5360    21.1460 ho         1 QE8       0.463000
     33 H11         17.8920    -0.2880    19.6730 hc         1 QE8       0.061700
     34 H12         19.0120     0.7650    20.5230 hc         1 QE8       0.061700
     35 H13         18.5310     3.3920    20.5300 hc         1 QE8       0.076700
     36 H14         17.1580     5.3270    19.6070 h1         1 QE8       0.050700
     37 H15         16.0240     4.1540    18.9470 h1         1 QE8       0.050700
     38 H16         16.9090    10.0790    23.0020 ho         1 QE8       0.442000
     39 H17         15.3100     7.0570    24.2700 h1         1 QE8       0.064700
     40 H18         18.6780     5.3150    17.9090 ho         1 QE8       0.509000
     41 H19         20.4440     2.4150    19.2130 h1         1 QE8       0.042700
     42 H20         13.9360     4.9490    22.5180 h1         1 QE8       0.061700
     43 H21         13.2260     4.0820    24.4410 ho         1 QE8       0.451000
     44 H22         20.0360     0.1420    18.4140 h1         1 QE8       0.051700
     45 H23         15.5120     3.3240    23.4120 h1         1 QE8       0.042700
     46 H24         18.3650    -0.4060    17.1100 ho         1 QE8       0.503000
     47 H25         15.7340     4.7240    25.3880 ho         1 QE8       0.522000
     48 H26         16.5640     1.6760    18.9020 h1         1 QE8       0.037700
     49 H3          15.1680     6.8460    21.2140 hc         1 QE8       0.063700
@<TRIPOS>BOND
     1     1    16 1   
     2     1    24 1   
     3     2    11 1   
     4     2    15 1   
     5     2    16 1   
     6     2    25 1   
     7     3     5 1   
     8     3     6 1   
     9     3    14 1   
    10     3    49 1   
    11     4    14 1   
    12     4    26 1   
    13     5    13 1   
    14     5    27 1   
    15     5    28 1   
    16     6     8 1   
    17     6    29 1   
    18     6    30 1   
    19     7     8 1   
    20     7    12 1   
    21     8    20 1   
    22     8    31 1   
    23     9    23 1   
    24     9    32 1   
    25    10    19 1   
    26    10    23 1   
    27    10    33 1   
    28    10    34 1   
    29    11    12 1   
    30    11    23 1   
    31    11    35 1   
    32    12    36 1   
    33    12    37 1   
    34    13    38 1   
    35    14    17 1   
    36    14    39 1   
    37    15    40 1   
    38    16    19 1   
    39    16    41 1   
    40    17    18 1   
    41    17    20 1   
    42    17    42 1   
    43    18    43 1   
    44    19    21 1   
    45    19    44 1   
    46    20    22 1   
    47    20    45 1   
    48    21    46 1   
    49    22    47 1   
    50    23    48 1   
@<TRIPOS>SUBSTRUCTURE
     1 QE8         1 TEMP              0 ****  ****    0 ROOT
