@<TRIPOS>MOLECULE
QE8
   49    50     1     0     0
SMALL
abcg2


@<TRIPOS>ATOM
      1 O3          20.6430     2.1800    17.3040 oh         1 QE8      -0.643000
      2 C4          18.9030     3.3030    18.5670 c6         1 QE8       0.139300
      3 C5          15.5130     7.1250    22.1200 c6         1 QE8      -0.049700
      4 O4          13.4330     7.1990    23.2920 oh         1 QE8      -0.725000
      5 C6          15.5660     8.6380    21.9810 c3         1 QE8       0.171600
      6 C7          16.9140     6.5110    22.1290 c6         1 QE8      -0.097400
      7 O6          16.2620     4.4450    21.0200 os         1 QE8      -0.481000
      8 C11         16.8820     4.9890    22.1750 c6         1 QE8       0.169300
      9 O8          16.3900     1.6390    20.8560 oh         1 QE8      -0.671000
     10 C1          18.0580     0.6680    19.5000 c6         1 QE8      -0.120400
     11 C51         17.9800     3.1750    19.7850 c6         1 QE8      -0.156700
     12 C61         17.0810     4.4090    19.8630 c3         1 QE8       0.157600
     13 O61         16.2260     9.1980    23.0950 oh         1 QE8      -0.663000
     14 C41         14.7360     6.6620    23.3500 c6         1 QE8       0.188300
     15 O41         19.7760     4.4140    18.6940 oh         1 QE8      -0.734000
     16 C3          19.7880     2.0670    18.4120 c6         1 QE8       0.180300
     17 C31         14.6840     5.1370    23.4020 c6         1 QE8       0.091300
     18 O31         14.0110     4.7870    24.6000 oh         1 QE8      -0.678000
     19 C2          18.9570     0.8020    18.2770 c6         1 QE8       0.175300
     20 C21         16.0760     4.5000    23.3760 c6         1 QE8       0.150300
     21 O2          18.2210     0.8800    17.0740 oh         1 QE8      -0.710000
     22 O21         16.8110     4.8230    24.5320 oh         1 QE8      -0.714000
     23 C71         17.1590     1.8790    19.6970 c6         1 QE8       0.190300
     24 H1          21.0920     3.0300    17.3750 ho         1 QE8       0.455000
     25 H2          18.2880     3.4090    17.6640 h1         1 QE8       0.060700
     26 H4          12.9500     6.8860    24.0640 ho         1 QE8       0.517000
     27 H5          16.0920     8.8760    21.0460 h1         1 QE8       0.024700
     28 H6          14.5500     9.0340    21.8770 h1         1 QE8       0.024700
     29 H7          17.4700     6.8520    21.2510 hc         1 QE8       0.063200
     30 H8          17.4790     6.8670    22.9940 hc         1 QE8       0.063200
     31 H9          17.9070     4.6060    22.2710 h1         1 QE8       0.064700
     32 H10         15.9430     2.4630    21.0850 ho         1 QE8       0.463000
     33 H11         17.4480    -0.2370    19.4140 hc         1 QE8       0.061700
     34 H12         18.6870     0.5380    20.3860 hc         1 QE8       0.061700
     35 H13         18.6110     3.1210    20.6820 hc         1 QE8       0.076700
     36 H14         17.6830     5.3200    19.7990 h1         1 QE8       0.050700
     37 H15         16.4040     4.4130    19.0030 h1         1 QE8       0.050700
     38 H16         16.2250    10.1540    22.9970 ho         1 QE8       0.442000
     39 H17         15.2590     7.0190    24.2490 h1         1 QE8       0.064700
     40 H18         19.4250     5.1540    18.1920 ho         1 QE8       0.509000
     41 H19         20.3700     1.9620    19.3430 h1         1 QE8       0.042700
     42 H20         14.1240     4.7840    22.5270 h1         1 QE8       0.061700
     43 H21         13.6780     3.8870    24.5180 ho         1 QE8       0.451000
     44 H22         19.6410    -0.0580    18.2530 h1         1 QE8       0.051700
     45 H23         15.9520     3.4080    23.2940 h1         1 QE8       0.042700
     46 H24         17.6810     0.0880    17.0020 ho         1 QE8       0.503000
     47 H25         16.2280     4.6930    25.2880 ho         1 QE8       0.522000
     48 H26         16.5010     1.9700    18.8180 h1         1 QE8       0.037700
     49 H3          14.9830     6.7630    21.2300 hc         1 QE8       0.063700
@<TRIPOS>BOND
     1     1    16 1   
     2     1    24 1   
     3     2    11 1   
     4     2    15 1   
     5     2    16 1   
     6     2    25 1   
     7     3     5 1   
     8     3     6 1   
     9     3    14 1   
    10     3    49 1   
    11     4    14 1   
    12     4    26 1   
    13     5    13 1   
    14     5    27 1   
    15     5    28 1   
    16     6     8 1   
    17     6    29 1   
    18     6    30 1   
    19     7     8 1   
    20     7    12 1   
    21     8    20 1   
    22     8    31 1   
    23     9    23 1   
    24     9    32 1   
    25    10    19 1   
    26    10    23 1   
    27    10    33 1   
    28    10    34 1   
    29    11    12 1   
    30    11    23 1   
    31    11    35 1   
    32    12    36 1   
    33    12    37 1   
    34    13    38 1   
    35    14    17 1   
    36    14    39 1   
    37    15    40 1   
    38    16    19 1   
    39    16    41 1   
    40    17    18 1   
    41    17    20 1   
    42    17    42 1   
    43    18    43 1   
    44    19    21 1   
    45    19    44 1   
    46    20    22 1   
    47    20    45 1   
    48    21    46 1   
    49    22    47 1   
    50    23    48 1   
@<TRIPOS>SUBSTRUCTURE
     1 QE8         1 TEMP              0 ****  ****    0 ROOT
