@<TRIPOS>MOLECULE
QE9
   75    78     1     0     0
SMALL
No Charge or Current Charge


@<TRIPOS>ATOM
      1 C1          39.4730    29.5230     1.8000 c5         1 QE9       0.037700
      2 N1          39.6960    29.5380     0.3270 n          1 QE9      -0.393800
      3 C2          40.1020    28.2090    -0.1990 c5         1 QE9       0.111000
      4 C3          39.9350    27.2670     1.0320 c5         1 QE9       0.151300
      5 C4          40.2500    28.2310     2.2020 c5         1 QE9      -0.122400
      6 C5          40.0810    30.7310     2.5830 c          1 QE9       0.598100
      7 O1          40.9120    31.5370     2.1830 o          1 QE9      -0.590100
      8 N2          39.5310    30.7730     3.8470 ns         1 QE9      -0.499900
      9 C6          39.2480    30.5980    -0.4910 c          1 QE9       0.619100
     10 O2          38.5560    31.4910    -0.0170 o          1 QE9      -0.608100
     11 C7          39.6350    30.6180    -1.9860 c3         1 QE9      -0.171000
     12 C8          38.4140    30.3520    -2.8220 cc         1 QE9       0.192300
     13 C9          40.3770    31.9320    -2.3890 c3         1 QE9      -0.045700
     14 C10         41.6360    32.1790    -1.5220 c3         1 QE9      -0.093600
     15 C11         40.7550    31.9480    -3.8920 c3         1 QE9      -0.093600
     16 C12         37.3560    31.1370    -3.1580 cd         1 QE9      -0.230000
     17 C13         36.5240    30.3450    -3.9660 cd         1 QE9       0.284300
     18 N3          37.0030    29.1260    -4.1470 nc         1 QE9      -0.362300
     19 O3          38.2420    29.1160    -3.4020 os         1 QE9      -0.104700
     20 O4          38.6080    26.7380     1.1330 oh         1 QE9      -0.656000
     21 C14         35.2240    30.7610    -4.5930 c3         1 QE9      -0.133400
     22 C15         39.9380    31.7100     4.8940 c3         1 QE9       0.161300
     23 C16         40.2780    30.9790     6.1860 ca         1 QE9      -0.121300
     24 C17         39.3970    31.0490     7.2820 ca         1 QE9      -0.068000
     25 C18         39.7060    30.3910     8.4830 ca         1 QE9      -0.134000
     26 C19         40.8990    29.6580     8.6080 ca         1 QE9       0.029000
     27 C20         41.7710    29.5670     7.5080 ca         1 QE9      -0.175000
     28 C21         41.4700    30.2310     6.2980 ca         1 QE9       0.147100
     29 C22         41.2060    28.9790     9.8640 cc         1 QE9      -0.179000
     30 C23         42.3860    29.1880    10.5510 cd         1 QE9       0.299300
     31 N4          42.4760    28.4750    11.7390 nd         1 QE9      -0.638000
     32 C24         41.3630    27.7680    11.9280 cc         1 QE9       0.418300
     33 S1          40.1200    27.9190    10.7090 ss         1 QE9      -0.039400
     34 C25         43.5260    30.0930    10.1590 c3         1 QE9      -0.121400
     35 O5          42.3130    30.1710     5.2040 os         1 QE9      -0.362100
     36 C26         43.5450    29.4240     5.2080 c3         1 QE9       0.128600
     37 C27         44.2370    29.5800     3.8270 c3         1 QE9       0.158600
     38 O6          45.0130    30.8040     3.7640 os         1 QE9      -0.463000
     39 C28         44.2640    32.0380     3.7610 c3         1 QE9       0.146900
     40 H1          38.4010    29.4440     2.0260 h1         1 QE9       0.070700
     41 H2          39.4740    27.8840    -1.0400 h1         1 QE9       0.070700
     42 H3          41.1470    28.2310    -0.5370 h1         1 QE9       0.070700
     43 H4          40.6600    26.4420     0.9890 h1         1 QE9       0.057700
     44 H5          39.9410    27.8380     3.1780 hc         1 QE9       0.067700
     45 H6          41.3300    28.4190     2.2610 hc         1 QE9       0.067700
     46 H7          38.8600    30.0540     4.0840 hn         1 QE9       0.316500
     47 H8          40.3360    29.8000    -2.1790 hc         1 QE9       0.079700
     48 H9          39.6950    32.7760    -2.2170 hc         1 QE9       0.072700
     49 H10         41.3760    32.2970    -0.4640 hc         1 QE9       0.041200
     50 H11         42.3430    31.3440    -1.6110 hc         1 QE9       0.041200
     51 H12         42.1500    33.0950    -1.8360 hc         1 QE9       0.041200
     52 H13         41.2760    32.8780    -4.1500 hc         1 QE9       0.041200
     53 H14         41.4160    31.1070    -4.1360 hc         1 QE9       0.041200
     54 H15         39.8660    31.8820    -4.5290 hc         1 QE9       0.041200
     55 H16         37.1900    32.1660    -2.8600 ha         1 QE9       0.163000
     56 H17         38.6020    26.1200     1.8970 ho         1 QE9       0.444000
     57 H18         35.3050    30.7790    -5.6860 hc         1 QE9       0.056700
     58 H19         34.4180    30.0680    -4.3230 hc         1 QE9       0.056700
     59 H20         34.9290    31.7630    -4.2610 hc         1 QE9       0.056700
     60 H21         40.8120    32.2890     4.5670 h1         1 QE9       0.072200
     61 H22         39.1180    32.4210     5.0660 h1         1 QE9       0.072200
     62 H23         38.4720    31.6170     7.2060 ha         1 QE9       0.111000
     63 H24         39.0200    30.4590     9.3240 ha         1 QE9       0.118000
     64 H25         42.6740    28.9740     7.6080 ha         1 QE9       0.124000
     65 H35         43.3380    28.3600     5.3780 h1         1 QE9       0.046700
     66 H36         44.2210    29.7770     5.9980 h1         1 QE9       0.046700
     67 H37         43.4860    29.5430     3.0260 h1         1 QE9       0.058200
     68 H38         44.9050    28.7200     3.6860 h1         1 QE9       0.058200
     69 H39         44.9340    32.8870     3.5760 h1         1 QE9       0.034700
     70 H40         43.5000    32.0320     2.9720 h1         1 QE9       0.034700
     71 H41         43.7720    32.2090     4.7280 h1         1 QE9       0.034700
     72 H26         41.1850    27.1260    12.7820 h5         1 QE9       0.053100
     73 H27         44.1080    30.4040    11.0360 hc         1 QE9       0.052367
     74 H28         44.2100    29.5860     9.4700 hc         1 QE9       0.052367
     75 H29         43.1610    31.0030     9.6690 hc         1 QE9       0.052367
@<TRIPOS>BOND
     1     1     2 1   
     2     1     5 1   
     3     1     6 1   
     4     1    40 1   
     5     2     3 1   
     6     2     9 1   
     7     3     4 1   
     8     3    41 1   
     9     3    42 1   
    10     4     5 1   
    11     4    20 1   
    12     4    43 1   
    13     5    44 1   
    14     5    45 1   
    15     6     7 2   
    16     6     8 1   
    17     8    22 1   
    18     8    46 1   
    19     9    10 2   
    20     9    11 1   
    21    11    12 1   
    22    11    13 1   
    23    11    47 1   
    24    12    16 2   
    25    12    19 1   
    26    13    14 1   
    27    13    15 1   
    28    13    48 1   
    29    14    49 1   
    30    14    50 1   
    31    14    51 1   
    32    15    52 1   
    33    15    53 1   
    34    15    54 1   
    35    16    17 1   
    36    16    55 1   
    37    17    18 2   
    38    17    21 1   
    39    18    19 1   
    40    20    56 1   
    41    21    57 1   
    42    21    58 1   
    43    21    59 1   
    44    22    23 1   
    45    22    60 1   
    46    22    61 1   
    47    23    24 ar  
    48    23    28 ar  
    49    24    25 ar  
    50    24    62 1   
    51    25    26 ar  
    52    25    63 1   
    53    26    27 ar  
    54    26    29 1   
    55    27    28 ar  
    56    27    64 1   
    57    28    35 1   
    58    29    30 2   
    59    29    33 1   
    60    30    31 1   
    61    30    34 1   
    62    31    32 2   
    63    32    33 1   
    64    32    72 1   
    65    34    73 1   
    66    34    74 1   
    67    34    75 1   
    68    35    36 1   
    69    36    37 1   
    70    36    65 1   
    71    36    66 1   
    72    37    38 1   
    73    37    67 1   
    74    37    68 1   
    75    38    39 1   
    76    39    69 1   
    77    39    70 1   
    78    39    71 1   
@<TRIPOS>SUBSTRUCTURE
     1 QE9         1 TEMP              0 ****  ****    0 ROOT
