@<TRIPOS>MOLECULE
QE9
   75    78     1     0     0
SMALL
abcg2


@<TRIPOS>ATOM
      1 C1          38.6780    29.4290     1.7670 c5         1 QE9       0.037700
      2 N1          38.8610    29.0860     0.3570 n          1 QE9      -0.393800
      3 C2          38.3560    27.7420     0.0410 c5         1 QE9       0.111000
      4 C3          37.4620    27.4160     1.2270 c5         1 QE9       0.151300
      5 C4          38.1610    28.1210     2.3880 c5         1 QE9      -0.122400
      6 C5          39.9900    29.8630     2.4160 c          1 QE9       0.598100
      7 O1          41.0510    29.2970     2.1680 o          1 QE9      -0.590100
      8 N2          39.8700    30.8500     3.3200 ns         1 QE9      -0.499900
      9 C6          39.3470    30.0000    -0.4980 c          1 QE9       0.619100
     10 O2          39.6320    31.1410    -0.1290 o          1 QE9      -0.608100
     11 C7          39.5330    29.5760    -1.9590 c3         1 QE9      -0.171000
     12 C8          38.3680    30.0790    -2.7470 cc         1 QE9       0.192300
     13 C9          40.8900    30.0870    -2.5070 c3         1 QE9      -0.045700
     14 C10         42.0400    29.4670    -1.7110 c3         1 QE9      -0.093600
     15 C11         41.0320    29.7800    -3.9960 c3         1 QE9      -0.093600
     16 C12         37.7330    31.2760    -2.8190 cd         1 QE9      -0.230000
     17 C13         36.7190    31.0860    -3.8010 cd         1 QE9       0.284300
     18 N3          36.7450    29.8660    -4.2800 nc         1 QE9      -0.362300
     19 O3          37.7960    29.2140    -3.6090 os         1 QE9      -0.104700
     20 O4          36.1750    27.9780     0.9590 oh         1 QE9      -0.656000
     21 C14         35.7160    32.0760    -4.2850 c3         1 QE9      -0.133400
     22 C15         40.9840    31.3170     4.1180 c3         1 QE9       0.161300
     23 C16         41.2610    30.4830     5.3500 ca         1 QE9      -0.121300
     24 C17         40.4470    29.4390     5.7600 ca         1 QE9      -0.068000
     25 C18         40.7340    28.6950     6.8990 ca         1 QE9      -0.134000
     26 C19         41.8650    28.9890     7.6610 ca         1 QE9       0.029000
     27 C20         42.7020    30.0380     7.2560 ca         1 QE9      -0.175000
     28 C21         42.4000    30.7770     6.1190 ca         1 QE9       0.147100
     29 C22         42.1950    28.2080     8.8580 cc         1 QE9      -0.179000
     30 C23         42.6510    28.6270    10.0860 cd         1 QE9       0.299300
     31 N4          42.8730    27.6130    10.9950 nd         1 QE9      -0.638000
     32 C24         42.6000    26.4450    10.4900 cc         1 QE9       0.418300
     33 S1          42.0450    26.4780     8.8620 ss         1 QE9      -0.039400
     34 C25         42.8860    30.0400    10.5150 c3         1 QE9      -0.121400
     35 O5          43.1660    31.8020     5.6590 os         1 QE9      -0.362100
     36 C26         44.3360    32.1780     6.3920 c3         1 QE9       0.128600
     37 C27         45.0220    33.3200     5.6750 c3         1 QE9       0.158600
     38 O6          44.3630    34.5720     5.7950 os         1 QE9      -0.463000
     39 C28         43.2890    34.7780     4.8830 c3         1 QE9       0.146900
     40 H1          37.9380    30.2270     1.8560 h1         1 QE9       0.070700
     41 H2          37.7890    27.7340    -0.8870 h1         1 QE9       0.070700
     42 H3          39.1760    27.0240    -0.0300 h1         1 QE9       0.070700
     43 H4          37.3820    26.3390     1.3850 h1         1 QE9       0.057700
     44 H5          37.4990    28.2990     3.2330 hc         1 QE9       0.067700
     45 H6          39.0010    27.5110     2.7250 hc         1 QE9       0.067700
     46 H7          38.9630    31.2600     3.4710 hn         1 QE9       0.316500
     47 H8          39.5360    28.4890    -2.0380 hc         1 QE9       0.079700
     48 H9          40.9050    31.1700    -2.3660 hc         1 QE9       0.072700
     49 H10         41.9730    29.7040    -0.6490 hc         1 QE9       0.041200
     50 H11         42.0370    28.3790    -1.8180 hc         1 QE9       0.041200
     51 H12         42.9980    29.8380    -2.0810 hc         1 QE9       0.041200
     52 H13         42.0010    30.1310    -4.3580 hc         1 QE9       0.041200
     53 H14         40.9740    28.7040    -4.1800 hc         1 QE9       0.041200
     54 H15         40.2570    30.2670    -4.5890 hc         1 QE9       0.041200
     55 H16         37.9500    32.1680    -2.2590 ha         1 QE9       0.163000
     56 H17         35.6280    27.8760     1.7490 ho         1 QE9       0.444000
     57 H18         35.0750    31.6330    -5.0450 hc         1 QE9       0.056700
     58 H19         35.0960    32.4220    -3.4560 hc         1 QE9       0.056700
     59 H20         36.2170    32.9490    -4.7080 hc         1 QE9       0.056700
     60 H21         41.8750    31.3380     3.4890 h1         1 QE9       0.072200
     61 H22         40.7810    32.3490     4.4070 h1         1 QE9       0.072200
     62 H23         39.5650    29.2010     5.1810 ha         1 QE9       0.111000
     63 H24         40.0710    27.8950     7.2000 ha         1 QE9       0.118000
     64 H25         43.5960    30.2470     7.8210 ha         1 QE9       0.124000
     65 H35         45.0250    31.3290     6.4500 h1         1 QE9       0.046700
     66 H36         44.0580    32.4770     7.4070 h1         1 QE9       0.046700
     67 H37         45.1630    33.0640     4.6180 h1         1 QE9       0.058200
     68 H38         46.0060    33.4490     6.1310 h1         1 QE9       0.058200
     69 H39         43.0110    35.8280     4.9560 h1         1 QE9       0.034700
     70 H40         43.6050    34.5590     3.8570 h1         1 QE9       0.034700
     71 H41         42.4260    34.1550     5.1260 h1         1 QE9       0.034700
     72 H26         42.6980    25.5120    11.0270 h5         1 QE9       0.053100
     73 H27         42.5880    30.1630    11.5570 hc         1 QE9       0.052367
     74 H28         43.9440    30.3050    10.4390 hc         1 QE9       0.052367
     75 H29         42.3220    30.7410     9.9020 hc         1 QE9       0.052367
@<TRIPOS>BOND
     1     1     2 1   
     2     1     5 1   
     3     1     6 1   
     4     1    40 1   
     5     2     3 1   
     6     2     9 1   
     7     3     4 1   
     8     3    41 1   
     9     3    42 1   
    10     4     5 1   
    11     4    20 1   
    12     4    43 1   
    13     5    44 1   
    14     5    45 1   
    15     6     7 2   
    16     6     8 1   
    17     8    22 1   
    18     8    46 1   
    19     9    10 2   
    20     9    11 1   
    21    11    12 1   
    22    11    13 1   
    23    11    47 1   
    24    12    16 2   
    25    12    19 1   
    26    13    14 1   
    27    13    15 1   
    28    13    48 1   
    29    14    49 1   
    30    14    50 1   
    31    14    51 1   
    32    15    52 1   
    33    15    53 1   
    34    15    54 1   
    35    16    17 1   
    36    16    55 1   
    37    17    18 2   
    38    17    21 1   
    39    18    19 1   
    40    20    56 1   
    41    21    57 1   
    42    21    58 1   
    43    21    59 1   
    44    22    23 1   
    45    22    60 1   
    46    22    61 1   
    47    23    24 ar  
    48    23    28 ar  
    49    24    25 ar  
    50    24    62 1   
    51    25    26 ar  
    52    25    63 1   
    53    26    27 ar  
    54    26    29 1   
    55    27    28 ar  
    56    27    64 1   
    57    28    35 1   
    58    29    30 2   
    59    29    33 1   
    60    30    31 1   
    61    30    34 1   
    62    31    32 2   
    63    32    33 1   
    64    32    72 1   
    65    34    73 1   
    66    34    74 1   
    67    34    75 1   
    68    35    36 1   
    69    36    37 1   
    70    36    65 1   
    71    36    66 1   
    72    37    38 1   
    73    37    67 1   
    74    37    68 1   
    75    38    39 1   
    76    39    69 1   
    77    39    70 1   
    78    39    71 1   
@<TRIPOS>SUBSTRUCTURE
     1 QE9         1 TEMP              0 ****  ****    0 ROOT
