@<TRIPOS>MOLECULE
QEA
   78    81     1     0     0
SMALL
abcg2


@<TRIPOS>ATOM
      1 C10          1.2780     0.6280     0.7310 c3         1 QEA       0.024600
      2 C12         -1.3990     0.9110     0.1190 c3         1 QEA      -0.026700
      3 C13         -1.4700     2.4450     0.0020 c3         1 QEA      -0.023100
      4 C14         -2.7670     2.9650     0.5590 ca         1 QEA      -0.092300
      5 C01          2.2000    -4.9780     0.6960 c3         1 QEA      -0.108100
      6 C02          3.5140    -4.3900     0.1970 c3         1 QEA       0.225000
      7 C03          4.5830    -4.3880     1.2840 c3         1 QEA      -0.108100
      8 C04          4.0100    -5.1760    -1.0100 c3         1 QEA      -0.108100
      9 C06          2.9280    -2.0260     0.4150 c          1 QEA       0.654100
     10 C09          2.7110     0.4220     0.2540 c3         1 QEA       0.154700
     11 C15         -2.9630     3.0430     1.9370 ca         1 QEA      -0.106000
     12 C16         -4.1930     3.4200     2.4590 ca         1 QEA      -0.113000
     13 C17         -5.2460     3.7300     1.6080 ca         1 QEA      -0.113000
     14 C18         -5.0580     3.6680     0.2340 ca         1 QEA      -0.113000
     15 C19         -3.8270     3.2870    -0.2850 ca         1 QEA      -0.106000
     16 C20         -2.5740     0.3080    -0.6260 c          1 QEA       0.617100
     17 C23         -4.9240    -0.3210    -0.4090 c3         1 QEA       0.107000
     18 C24         -5.9700    -0.2720     0.7000 c3         1 QEA      -0.048100
     19 C25         -7.3510    -0.4550     0.1460 ca         1 QEA      -0.133300
     20 C26         -7.9310    -1.7160     0.0490 ca         1 QEA       0.341900
     21 C28         -9.8290    -0.9040    -0.9040 ca         1 QEA       0.335900
     22 C29         -9.3540     0.3980    -0.8570 ca         1 QEA      -0.162000
     23 C30         -8.0950     0.6210    -0.3250 ca         1 QEA      -0.070000
     24 C31          3.7050     0.7860     1.3740 c3         1 QEA      -0.020200
     25 C32          5.1140     0.4570     1.0210 cc         1 QEA      -0.147400
     26 C33          5.8800    -0.5380     1.5600 cd         1 QEA      -0.145100
     27 C35          7.1630     0.3960    -0.0030 ca         1 QEA      -0.048200
     28 C36          5.9210     1.0710     0.0070 ca         1 QEA      -0.097800
     29 C37          5.7150     2.1270    -0.8880 ca         1 QEA      -0.067000
     30 C38          6.7320     2.4790    -1.7540 ca         1 QEA      -0.139000
     31 C39          7.9600     1.7960    -1.7450 ca         1 QEA      -0.093000
     32 C40          8.1930     0.7500    -0.8730 ca         1 QEA      -0.127000
     33 N08          2.9300    -0.8910    -0.3140 ns         1 QEA      -0.487900
     34 N22         -3.6150    -0.0370     0.1400 ns         1 QEA      -0.496900
     35 N27         -9.1350    -1.9450    -0.4600 nb         1 QEA      -0.662000
     36 N34          7.1030    -0.5770     0.9510 na         1 QEA      -0.224700
     37 O05          3.3210    -3.0550    -0.3390 os         1 QEA      -0.476100
     38 O07          2.5930    -2.0920     1.5800 o          1 QEA      -0.563000
     39 O21         -2.5720     0.2090    -1.8450 o          1 QEA      -0.586100
     40 S11          0.1190     0.2220    -0.6070 ss         1 QEA      -0.345000
     41 H1           1.0550     0.0160     1.6050 h1         1 QEA       0.069700
     42 H2           1.1570     1.6760     1.0130 h1         1 QEA       0.069700
     43 H3          -1.4270     0.6270     1.1750 h1         1 QEA       0.070700
     44 H4          -0.6240     2.8760     0.5400 hc         1 QEA       0.066200
     45 H5          -1.3610     2.7270    -1.0460 hc         1 QEA       0.066200
     46 H6           1.4270    -4.9160    -0.0720 hc         1 QEA       0.048256
     47 H7           2.3450    -6.0330     0.9340 hc         1 QEA       0.048256
     48 H8           1.8410    -4.4790     1.5930 hc         1 QEA       0.048256
     49 H9           4.2510    -3.8920     2.1930 hc         1 QEA       0.048256
     50 H10          4.8380    -5.4170     1.5410 hc         1 QEA       0.048256
     51 H11          5.4950    -3.9000     0.9340 hc         1 QEA       0.048256
     52 H12          4.9400    -4.7590    -1.4010 hc         1 QEA       0.048256
     53 H13          4.2040    -6.2100    -0.7240 hc         1 QEA       0.048256
     54 H14          3.2710    -5.1850    -1.8130 hc         1 QEA       0.048256
     55 H15          2.8770     1.1110    -0.5770 h1         1 QEA       0.061700
     56 H16         -2.1470     2.8000     2.6080 ha         1 QEA       0.117500
     57 H17         -4.3290     3.4730     3.5320 ha         1 QEA       0.114000
     58 H18         -6.2060     4.0240     2.0130 ha         1 QEA       0.114000
     59 H19         -5.8720     3.9130    -0.4380 ha         1 QEA       0.114000
     60 H20         -3.6920     3.2280    -1.3590 ha         1 QEA       0.117500
     61 H21         -4.9360    -1.3000    -0.8950 h1         1 QEA       0.056700
     62 H22         -5.1650     0.4240    -1.1730 h1         1 QEA       0.056700
     63 H23         -5.7580    -1.0460     1.4420 hc         1 QEA       0.054700
     64 H24         -5.9050     0.6930     1.2100 hc         1 QEA       0.054700
     65 H25         -7.3890    -2.5850     0.4120 h4         1 QEA       0.019100
     66 H26        -10.8110    -1.1150    -1.3140 h4         1 QEA       0.020100
     67 H27         -9.9600     1.2150    -1.2260 ha         1 QEA       0.124000
     68 H28         -7.6940     1.6270    -0.2670 ha         1 QEA       0.118000
     69 H29          3.5970     1.8570     1.5670 hc         1 QEA       0.058700
     70 H30          3.4270     0.2750     2.2960 hc         1 QEA       0.058700
     71 H31          5.6390    -1.2330     2.3490 h4         1 QEA       0.219000
     72 H32          4.7750     2.6670    -0.9030 ha         1 QEA       0.111000
     73 H33          6.5880     3.2950    -2.4510 ha         1 QEA       0.111000
     74 H34          8.7390     2.0950    -2.4340 ha         1 QEA       0.110000
     75 H35          9.1400     0.2260    -0.8660 ha         1 QEA       0.112000
     76 H36          3.3270    -0.9300    -1.2380 hn         1 QEA       0.332500
     77 H37         -3.5500     0.1200     1.1340 hn         1 QEA       0.313500
     78 H38          7.8490    -1.2060     1.1960 hn         1 QEA       0.350000
@<TRIPOS>BOND
     1     1    10 1   
     2     1    40 1   
     3     1    41 1   
     4     1    42 1   
     5     2     3 1   
     6     2    16 1   
     7     2    40 1   
     8     2    43 1   
     9     3     4 1   
    10     3    44 1   
    11     3    45 1   
    12     4    11 ar  
    13     4    15 ar  
    14     5     6 1   
    15     5    46 1   
    16     5    47 1   
    17     5    48 1   
    18     6     7 1   
    19     6     8 1   
    20     6    37 1   
    21     7    49 1   
    22     7    50 1   
    23     7    51 1   
    24     8    52 1   
    25     8    53 1   
    26     8    54 1   
    27     9    33 1   
    28     9    37 1   
    29     9    38 2   
    30    10    24 1   
    31    10    33 1   
    32    10    55 1   
    33    11    12 ar  
    34    11    56 1   
    35    12    13 ar  
    36    12    57 1   
    37    13    14 ar  
    38    13    58 1   
    39    14    15 ar  
    40    14    59 1   
    41    15    60 1   
    42    16    34 1   
    43    16    39 2   
    44    17    18 1   
    45    17    34 1   
    46    17    61 1   
    47    17    62 1   
    48    18    19 1   
    49    18    63 1   
    50    18    64 1   
    51    19    20 ar  
    52    19    23 ar  
    53    20    35 ar  
    54    20    65 1   
    55    21    22 ar  
    56    21    35 ar  
    57    21    66 1   
    58    22    23 ar  
    59    22    67 1   
    60    23    68 1   
    61    24    25 1   
    62    24    69 1   
    63    24    70 1   
    64    25    26 2   
    65    25    28 1   
    66    26    36 1   
    67    26    71 1   
    68    27    28 ar  
    69    27    32 ar  
    70    27    36 1   
    71    28    29 ar  
    72    29    30 ar  
    73    29    72 1   
    74    30    31 ar  
    75    30    73 1   
    76    31    32 ar  
    77    31    74 1   
    78    32    75 1   
    79    33    76 1   
    80    34    77 1   
    81    36    78 1   
@<TRIPOS>SUBSTRUCTURE
     1 QEA         1 TEMP              0 ****  ****    0 ROOT
