@<TRIPOS>MOLECULE
QEA
   78    81     1     0     0
SMALL
No Charge or Current Charge


@<TRIPOS>ATOM
      1 C10          1.5170     1.0280     0.6150 c3         1 QEA       0.024600
      2 C12         -1.3160     1.0960     0.2090 c3         1 QEA      -0.026700
      3 C13         -1.4910     2.6030     0.5080 c3         1 QEA      -0.023100
      4 C14         -2.7700     2.8740     1.2920 ca         1 QEA      -0.092300
      5 C01          1.3270    -4.5520     0.7040 c3         1 QEA      -0.108100
      6 C02          2.7850    -4.3370     0.2200 c3         1 QEA       0.225000
      7 C03          3.8390    -4.5920     1.3290 c3         1 QEA      -0.108100
      8 C04          3.0740    -5.2410    -0.9990 c3         1 QEA      -0.108100
      9 C06          2.7610    -1.8840     0.4920 c          1 QEA       0.654100
     10 C09          2.9360     0.6160     0.1520 c3         1 QEA       0.154700
     11 C15         -2.8450     2.5430     2.6590 ca         1 QEA      -0.106000
     12 C16         -4.0360     2.7560     3.3750 ca         1 QEA      -0.113000
     13 C17         -5.1590     3.3000     2.7280 ca         1 QEA      -0.113000
     14 C18         -5.0890     3.6320     1.3650 ca         1 QEA      -0.113000
     15 C19         -3.8980     3.4200     0.6490 ca         1 QEA      -0.106000
     16 C20         -2.5510     0.5440    -0.5430 c          1 QEA       0.617100
     17 C23         -4.6360    -0.8360    -0.2450 c3         1 QEA       0.107000
     18 C24         -5.7510     0.2240    -0.1300 c3         1 QEA      -0.048100
     19 C25         -7.1140    -0.3250    -0.5340 ca         1 QEA      -0.133300
     20 C26         -8.1030    -0.5940     0.4360 ca         1 QEA       0.341900
     21 C28         -9.6060    -1.3190    -1.1710 ca         1 QEA       0.335900
     22 C29         -8.6830    -1.0800    -2.2040 ca         1 QEA      -0.162000
     23 C30         -7.4130    -0.5730    -1.8850 ca         1 QEA      -0.070000
     24 C31          4.0110     0.9340     1.2230 c3         1 QEA      -0.020200
     25 C32          5.4090     0.5620     0.7980 cc         1 QEA      -0.147400
     26 C33          6.1750    -0.5040     1.2620 cd         1 QEA      -0.145100
     27 C35          7.3950     0.5450    -0.2900 ca         1 QEA      -0.048200
     28 C36          6.2100     1.2200    -0.1950 ca         1 QEA      -0.097800
     29 C37          5.9380     2.3510    -0.9790 ca         1 QEA      -0.067000
     30 C38          6.9290     2.7800    -1.8870 ca         1 QEA      -0.139000
     31 C39          8.1550     2.0800    -1.9900 ca         1 QEA      -0.093000
     32 C40          8.3970     0.9480    -1.1830 ca         1 QEA      -0.127000
     33 N08          2.9910    -0.7860    -0.2860 ns         1 QEA      -0.487900
     34 N22         -3.3420    -0.3120     0.1960 ns         1 QEA      -0.496900
     35 N27         -9.3290    -1.0830     0.1320 nb         1 QEA      -0.662000
     36 N34          7.4210    -0.5230     0.5880 na         1 QEA      -0.224700
     37 O05          2.9350    -2.9920    -0.2910 os         1 QEA      -0.476100
     38 O07          2.4580    -1.8580     1.6740 o          1 QEA      -0.563000
     39 O21         -2.8180     0.8360    -1.7020 o          1 QEA      -0.586100
     40 S11          0.2630     0.7830    -0.7300 ss         1 QEA      -0.345000
     41 H1           1.2250     0.4390     1.4930 h1         1 QEA       0.069700
     42 H2           1.5260     2.0870     0.9030 h1         1 QEA       0.069700
     43 H3          -1.2430     0.5570     1.1610 h1         1 QEA       0.070700
     44 H4          -0.6280     2.9690     1.0770 hc         1 QEA       0.066200
     45 H5          -1.4920     3.1610    -0.4370 hc         1 QEA       0.066200
     46 H6           0.6110    -4.1970    -0.0470 hc         1 QEA       0.048256
     47 H7           1.1360    -5.6180     0.8760 hc         1 QEA       0.048256
     48 H8           1.1270    -4.0320     1.6460 hc         1 QEA       0.048256
     49 H9           3.5910    -4.0700     2.2580 hc         1 QEA       0.048256
     50 H10          3.8930    -5.6620     1.5640 hc         1 QEA       0.048256
     51 H11          4.8340    -4.2660     1.0020 hc         1 QEA       0.048256
     52 H12          4.0870    -5.0690    -1.3810 hc         1 QEA       0.048256
     53 H13          2.9890    -6.3010    -0.7280 hc         1 QEA       0.048256
     54 H14          2.3630    -5.0410    -1.8100 hc         1 QEA       0.048256
     55 H15          3.1730     1.2260    -0.7300 h1         1 QEA       0.061700
     56 H16         -1.9830     2.1170     3.1670 ha         1 QEA       0.117500
     57 H17         -4.0890     2.4980     4.4310 ha         1 QEA       0.114000
     58 H18         -6.0810     3.4620     3.2820 ha         1 QEA       0.114000
     59 H19         -5.9580     4.0510     0.8630 ha         1 QEA       0.114000
     60 H20         -3.8580     3.6710    -0.4090 ha         1 QEA       0.117500
     61 H21         -4.8920    -1.7030     0.3780 h1         1 QEA       0.056700
     62 H22         -4.5520    -1.1780    -1.2850 h1         1 QEA       0.056700
     63 H23         -5.7810     0.5970     0.9010 hc         1 QEA       0.054700
     64 H24         -5.4990     1.0850    -0.7600 hc         1 QEA       0.054700
     65 H25         -7.9080    -0.4140     1.4930 h4         1 QEA       0.019100
     66 H26        -10.5980    -1.7120    -1.3940 h4         1 QEA       0.020100
     67 H27         -8.9570    -1.2860    -3.2350 ha         1 QEA       0.124000
     68 H28         -6.6820    -0.3780    -2.6680 ha         1 QEA       0.118000
     69 H29          3.9780     2.0060     1.4490 hc         1 QEA       0.058700
     70 H30          3.7620     0.4210     2.1590 hc         1 QEA       0.058700
     71 H31          5.9210    -1.2490     2.0120 h4         1 QEA       0.219000
     72 H32          4.9940     2.8840    -0.8910 ha         1 QEA       0.111000
     73 H33          6.7500     3.6520    -2.5110 ha         1 QEA       0.111000
     74 H34          8.9140     2.4170    -2.6920 ha         1 QEA       0.110000
     75 H35          9.3370     0.4050    -1.2530 ha         1 QEA       0.112000
     76 H36          3.2360    -0.9830    -1.2460 hn         1 QEA       0.332500
     77 H37         -3.0450    -0.5030     1.1460 hn         1 QEA       0.313500
     78 H38          8.1780    -1.1870     0.7190 hn         1 QEA       0.350000
@<TRIPOS>BOND
     1     1    10 1   
     2     1    40 1   
     3     1    41 1   
     4     1    42 1   
     5     2     3 1   
     6     2    16 1   
     7     2    40 1   
     8     2    43 1   
     9     3     4 1   
    10     3    44 1   
    11     3    45 1   
    12     4    11 ar  
    13     4    15 ar  
    14     5     6 1   
    15     5    46 1   
    16     5    47 1   
    17     5    48 1   
    18     6     7 1   
    19     6     8 1   
    20     6    37 1   
    21     7    49 1   
    22     7    50 1   
    23     7    51 1   
    24     8    52 1   
    25     8    53 1   
    26     8    54 1   
    27     9    33 1   
    28     9    37 1   
    29     9    38 2   
    30    10    24 1   
    31    10    33 1   
    32    10    55 1   
    33    11    12 ar  
    34    11    56 1   
    35    12    13 ar  
    36    12    57 1   
    37    13    14 ar  
    38    13    58 1   
    39    14    15 ar  
    40    14    59 1   
    41    15    60 1   
    42    16    34 1   
    43    16    39 2   
    44    17    18 1   
    45    17    34 1   
    46    17    61 1   
    47    17    62 1   
    48    18    19 1   
    49    18    63 1   
    50    18    64 1   
    51    19    20 ar  
    52    19    23 ar  
    53    20    35 ar  
    54    20    65 1   
    55    21    22 ar  
    56    21    35 ar  
    57    21    66 1   
    58    22    23 ar  
    59    22    67 1   
    60    23    68 1   
    61    24    25 1   
    62    24    69 1   
    63    24    70 1   
    64    25    26 2   
    65    25    28 1   
    66    26    36 1   
    67    26    71 1   
    68    27    28 ar  
    69    27    32 ar  
    70    27    36 1   
    71    28    29 ar  
    72    29    30 ar  
    73    29    72 1   
    74    30    31 ar  
    75    30    73 1   
    76    31    32 ar  
    77    31    74 1   
    78    32    75 1   
    79    33    76 1   
    80    34    77 1   
    81    36    78 1   
@<TRIPOS>SUBSTRUCTURE
     1 QEA         1 TEMP              0 ****  ****    0 ROOT
