@<TRIPOS>MOLECULE
QEC
   61    64     1     0     0
SMALL
abcg2


@<TRIPOS>ATOM
      1 N1           7.0190   -15.5540   -37.9200 nb         1 QEC      -0.251000
      2 C7           7.5550   -16.4190   -38.8180 ca         1 QEC      -0.020000
      3 C8           8.7180   -16.1520   -39.5600 ca         1 QEC      -0.237000
      4 N2           9.0480   -17.1570   -40.3680 nc         1 QEC      -0.259400
      5 C9           7.1960   -18.7180   -43.0830 ca         1 QEC       0.170100
      6 O1           6.0880   -18.4120   -42.3860 os         1 QEC      -0.342100
      7 C1           9.5710   -19.3830   -44.3730 ca         1 QEC      -0.155000
      8 C5           8.4910   -18.9340   -45.1200 ca         1 QEC      -0.061300
      9 C6           8.2830   -19.1840   -42.3310 ca         1 QEC      -0.147300
     10 N3           8.8340   -14.0710   -38.4600 nb         1 QEC      -0.339000
     11 C4           7.1840   -17.6870   -39.2430 cc         1 QEC      -0.219100
     12 C3           7.3040   -18.6070   -44.4660 ca         1 QEC      -0.198000
     13 C2           9.4560   -19.5060   -42.9950 ca         1 QEC      -0.043000
     14 N4           8.1110   -18.0560   -40.1550 na         1 QEC       0.153500
     15 C10          9.3610   -14.8950   -39.3390 ca         1 QEC       0.459900
     16 C11          7.6970   -14.4350   -37.8060 ca         1 QEC       0.389900
     17 C12          8.2820   -22.7790   -48.3140 cy         1 QEC      -0.091400
     18 C13          7.6250   -21.4640   -47.8500 cy         1 QEC      -0.091400
     19 C14          9.6520   -22.0920   -48.1620 cy         1 QEC      -0.091400
     20 C15          8.9790   -21.0690   -47.2340 cy         1 QEC       0.150500
     21 C16         13.9690   -12.2390   -37.2880 c3         1 QEC      -0.088100
     22 C17          4.9630   -17.9040   -43.0760 c3         1 QEC       0.148900
     23 C18          8.1780   -19.3370   -40.8430 c3         1 QEC       0.146900
     24 C20         12.9870   -12.1600   -38.4480 c3         1 QEC      -0.072400
     25 C21         12.1910   -13.4450   -38.6300 c3         1 QEC      -0.103400
     26 N5           7.2120   -13.4800   -36.9620 nv         1 QEC      -1.048900
     27 N6          10.4620   -14.5650   -40.0180 nu         1 QEC      -0.919100
     28 N7           9.3880   -19.6920   -47.3650 n7         1 QEC      -0.862400
     29 H1          10.5060   -19.6440   -44.8530 ha         1 QEC       0.113000
     30 H4           6.3620   -18.3300   -38.9760 h4         1 QEC       0.235000
     31 H3           6.4640   -18.2660   -45.0590 ha         1 QEC       0.119000
     32 H2          10.3010   -19.8640   -42.4180 ha         1 QEC       0.116000
     33 H5           8.1470   -23.5790   -47.5850 hc         1 QEC       0.049700
     34 H6           8.0130   -23.1600   -49.2980 hc         1 QEC       0.049700
     35 H7           7.3850   -20.8190   -48.6980 hc         1 QEC       0.054450
     36 H8           6.7570   -21.5230   -47.1920 hc         1 QEC       0.054450
     37 H10         10.4860   -22.6740   -47.7670 hc         1 QEC       0.054450
     38 H9           9.9600   -21.6140   -49.0940 hc         1 QEC       0.054450
     39 H11          9.0180   -21.4390   -46.1980 h1         1 QEC       0.032700
     40 H14         14.5300   -11.3110   -37.1750 hc         1 QEC       0.032367
     41 H12         13.4530   -12.4310   -36.3460 hc         1 QEC       0.032367
     42 H13         14.6900   -13.0460   -37.4380 hc         1 QEC       0.032367
     43 H15          4.2040   -17.7060   -42.3230 h1         1 QEC       0.044700
     44 H16          5.1940   -16.9710   -43.5970 h1         1 QEC       0.044700
     45 H17          4.5660   -18.6230   -43.7970 h1         1 QEC       0.044700
     46 H19          7.2900   -19.8980   -40.5530 h1         1 QEC       0.068200
     47 H18          9.0430   -19.8820   -40.4640 h1         1 QEC       0.068200
     48 H20          8.9600   -17.7470   -46.8290 h1         1 QEC       0.061200
     49 H21          7.5640   -18.7710   -47.0330 h1         1 QEC       0.061200
     50 H23         13.5290   -11.9350   -39.3710 hc         1 QEC       0.037700
     51 H22         12.2970   -11.3260   -38.2900 hc         1 QEC       0.037700
     52 H24         11.6330   -13.6660   -37.7150 hc         1 QEC       0.048700
     53 H25         12.8740   -14.2840   -38.7910 hc         1 QEC       0.048700
     54 H27         11.7660   -13.1440   -40.7220 h1         1 QEC       0.055700
     55 H26         10.5250   -12.5270   -39.6480 h1         1 QEC       0.055700
     56 H29          7.8610   -12.7790   -36.6480 hn         1 QEC       0.475000
     57 H28          6.5460   -13.7840   -36.2720 hn         1 QEC       0.475000
     58 H30         10.8520   -15.2630   -40.6310 hn         1 QEC       0.508000
     59 H31         10.3660   -19.5940   -47.1200 hn         1 QEC       0.419000
     60 C19          8.5780   -18.7520   -46.6240 c3         1 QEC       0.208100
     61 C22         11.2200   -13.3530   -39.8010 c3         1 QEC       0.230800
@<TRIPOS>BOND
     1     1     2 ar  
     2     1    16 ar  
     3     2     3 ar  
     4     2    11 2   
     5     3     4 2   
     6     3    15 ar  
     7     4    14 1   
     8     5     6 1   
     9     5     9 ar  
    10     5    12 ar  
    11     6    22 1   
    12     7     8 ar  
    13     7    13 ar  
    14     7    29 1   
    15     8    12 ar  
    16     8    60 1   
    17     9    13 ar  
    18     9    23 1   
    19    10    15 ar  
    20    10    16 ar  
    21    11    14 1   
    22    11    30 1   
    23    12    31 1   
    24    13    32 1   
    25    14    23 1   
    26    15    27 1   
    27    16    26 1   
    28    17    18 1   
    29    17    19 1   
    30    17    33 1   
    31    17    34 1   
    32    18    20 1   
    33    18    35 1   
    34    18    36 1   
    35    19    20 1   
    36    19    37 1   
    37    19    38 1   
    38    20    28 1   
    39    20    39 1   
    40    21    24 1   
    41    21    40 1   
    42    21    41 1   
    43    21    42 1   
    44    22    43 1   
    45    22    44 1   
    46    22    45 1   
    47    23    46 1   
    48    23    47 1   
    49    24    25 1   
    50    24    50 1   
    51    24    51 1   
    52    25    52 1   
    53    25    53 1   
    54    25    61 1   
    55    26    56 1   
    56    26    57 1   
    57    27    58 1   
    58    27    61 1   
    59    28    59 1   
    60    28    60 1   
    61    48    60 1   
    62    49    60 1   
    63    54    61 1   
    64    55    61 1   
@<TRIPOS>SUBSTRUCTURE
     1 QEC         1 TEMP              0 ****  ****    0 ROOT
