@<TRIPOS>MOLECULE
QEC
   61    64     1     0     0
SMALL
No Charge or Current Charge


@<TRIPOS>ATOM
      1 N1           7.2250   -14.9540   -39.2160 nb         1 QEC      -0.251000
      2 C7           8.0890   -15.8020   -39.7940 ca         1 QEC      -0.020000
      3 C8           9.4140   -15.5310   -40.0030 ca         1 QEC      -0.237000
      4 N2          10.1030   -16.5810   -40.6250 nc         1 QEC      -0.259400
      5 C9           7.7900   -19.1900   -43.3850 ca         1 QEC       0.170100
      6 O1           6.8100   -19.4950   -42.4590 os         1 QEC      -0.342100
      7 C1           9.8330   -18.5590   -45.2170 ca         1 QEC      -0.155000
      8 C5           8.5510   -18.8860   -45.6950 ca         1 QEC      -0.061300
      9 C6           9.0800   -18.8630   -42.9170 ca         1 QEC      -0.147300
     10 N3           9.0570   -13.3870   -38.9900 nb         1 QEC      -0.339000
     11 C4           7.8650   -17.1050   -40.3010 cc         1 QEC      -0.219100
     12 C3           7.5320   -19.1980   -44.7740 ca         1 QEC      -0.198000
     13 C2          10.0960   -18.5450   -43.8380 ca         1 QEC      -0.043000
     14 N4           9.0930   -17.5400   -40.7910 na         1 QEC       0.153500
     15 C10          9.8870   -14.2760   -39.5760 ca         1 QEC       0.459900
     16 C11          7.7780   -13.7800   -38.8470 ca         1 QEC       0.389900
     17 C12          6.8620   -23.0980   -47.7570 cy         1 QEC      -0.091400
     18 C13          6.5470   -21.5650   -47.7700 cy         1 QEC      -0.091400
     19 C14          8.2990   -22.6810   -48.2160 cy         1 QEC      -0.091400
     20 C15          8.0550   -21.3730   -47.3950 cy         1 QEC       0.150500
     21 C16         13.2430   -12.4970   -35.3390 c3         1 QEC      -0.088100
     22 C17          5.4680   -19.8440   -42.8410 c3         1 QEC       0.148900
     23 C18          9.3880   -18.8370   -41.4210 c3         1 QEC       0.146900
     24 C20         13.0000   -12.1380   -36.8180 c3         1 QEC      -0.072400
     25 C21         12.2020   -13.2200   -37.5800 c3         1 QEC      -0.103400
     26 N5           6.9520   -12.8860   -38.2540 nv         1 QEC      -1.048900
     27 N6          11.2190   -13.9260   -39.7510 nu         1 QEC      -0.919100
     28 N7           8.7310   -20.1650   -47.8240 n7         1 QEC      -0.862400
     29 H1          10.6290   -18.3130   -45.9160 ha         1 QEC       0.113000
     30 H4           6.9820   -17.7290   -40.3610 h4         1 QEC       0.235000
     31 H3           6.5470   -19.4490   -45.1570 ha         1 QEC       0.119000
     32 H2          11.0920   -18.2860   -43.4850 ha         1 QEC       0.116000
     33 H5           6.8160   -23.5660   -46.7660 hc         1 QEC       0.049700
     34 H6           6.2910   -23.7120   -48.4630 hc         1 QEC       0.049700
     35 H7           6.2640   -21.1650   -48.7510 hc         1 QEC       0.054450
     36 H8           5.8220   -21.2190   -47.0260 hc         1 QEC       0.054450
     37 H10          9.1180   -23.3190   -47.8660 hc         1 QEC       0.054450
     38 H9           8.4070   -22.5310   -49.2970 hc         1 QEC       0.054450
     39 H11          8.2410   -21.5240   -46.3230 h1         1 QEC       0.032700
     40 H14         13.8110   -11.7020   -34.8420 hc         1 QEC       0.032367
     41 H12         12.2920   -12.6230   -34.8090 hc         1 QEC       0.032367
     42 H13         13.8130   -13.4300   -35.2550 hc         1 QEC       0.032367
     43 H15          4.8610   -20.0490   -41.9500 h1         1 QEC       0.044700
     44 H16          4.9930   -19.0230   -43.3940 h1         1 QEC       0.044700
     45 H17          5.4620   -20.7430   -43.4700 h1         1 QEC       0.044700
     46 H19          8.8110   -19.6130   -40.9040 h1         1 QEC       0.068200
     47 H18         10.4480   -19.0680   -41.2610 h1         1 QEC       0.068200
     48 H20          8.7840   -18.0470   -47.6550 h1         1 QEC       0.061200
     49 H21          7.1960   -18.7550   -47.3680 h1         1 QEC       0.061200
     50 H23         13.9670   -11.9840   -37.3120 hc         1 QEC       0.037700
     51 H22         12.4590   -11.1850   -36.8690 hc         1 QEC       0.037700
     52 H24         11.2390   -13.3720   -37.0780 hc         1 QEC       0.048700
     53 H25         12.7460   -14.1720   -37.5270 hc         1 QEC       0.048700
     54 H27         12.9330   -12.7080   -39.5490 h1         1 QEC       0.055700
     55 H26         11.4100   -11.9070   -39.1250 h1         1 QEC       0.055700
     56 H29          7.3670   -12.0930   -37.7720 hn         1 QEC       0.475000
     57 H28          6.0450   -13.2040   -37.9240 hn         1 QEC       0.475000
     58 H30         11.7690   -14.6620   -40.1940 hn         1 QEC       0.508000
     59 H31          9.7330   -20.2640   -47.6190 hn         1 QEC       0.419000
     60 C19          8.2710   -18.9040   -47.1960 c3         1 QEC       0.208100
     61 C22         11.9590   -12.8570   -39.0610 c3         1 QEC       0.230800
@<TRIPOS>BOND
     1     1     2 ar  
     2     1    16 ar  
     3     2     3 ar  
     4     2    11 2   
     5     3     4 2   
     6     3    15 ar  
     7     4    14 1   
     8     5     6 1   
     9     5     9 ar  
    10     5    12 ar  
    11     6    22 1   
    12     7     8 ar  
    13     7    13 ar  
    14     7    29 1   
    15     8    12 ar  
    16     8    60 1   
    17     9    13 ar  
    18     9    23 1   
    19    10    15 ar  
    20    10    16 ar  
    21    11    14 1   
    22    11    30 1   
    23    12    31 1   
    24    13    32 1   
    25    14    23 1   
    26    15    27 1   
    27    16    26 1   
    28    17    18 1   
    29    17    19 1   
    30    17    33 1   
    31    17    34 1   
    32    18    20 1   
    33    18    35 1   
    34    18    36 1   
    35    19    20 1   
    36    19    37 1   
    37    19    38 1   
    38    20    28 1   
    39    20    39 1   
    40    21    24 1   
    41    21    40 1   
    42    21    41 1   
    43    21    42 1   
    44    22    43 1   
    45    22    44 1   
    46    22    45 1   
    47    23    46 1   
    48    23    47 1   
    49    24    25 1   
    50    24    50 1   
    51    24    51 1   
    52    25    52 1   
    53    25    53 1   
    54    25    61 1   
    55    26    56 1   
    56    26    57 1   
    57    27    58 1   
    58    27    61 1   
    59    28    59 1   
    60    28    60 1   
    61    48    60 1   
    62    49    60 1   
    63    54    61 1   
    64    55    61 1   
@<TRIPOS>SUBSTRUCTURE
     1 QEC         1 TEMP              0 ****  ****    0 ROOT
