@<TRIPOS>MOLECULE
QED
   68    70     1     0     0
SMALL
No Charge or Current Charge


@<TRIPOS>ATOM
      1 C1          -5.8720     2.2580     0.6450 ca         1 QED      -0.235600
      2 C2          -6.6650     2.3720     1.8140 ca         1 QED       0.134100
      3 C3          -7.7630     3.2590     1.8580 ca         1 QED       0.097100
      4 C4          -8.0850     4.0420     0.7410 ca         1 QED      -0.093000
      5 C5          -7.3080     3.9400    -0.4240 ca         1 QED      -0.125000
      6 C6          -6.2140     3.0590    -0.4750 ca         1 QED      -0.084000
      7 O7          -6.3760     1.6210     2.9190 oh         1 QED      -0.581100
      8 O8          -8.5130     3.3500     2.9970 oh         1 QED      -0.532100
      9 C9          -4.6960     1.3030     0.6100 c          1 QED       0.627700
     10 O10         -4.4000     0.6140     1.5790 o          1 QED      -0.657100
     11 N11         -3.9750     1.2400    -0.5590 ns         1 QED      -0.477900
     12 C12         -2.7900     0.3970    -0.7680 c3         1 QED       0.096000
     13 C13         -1.5430     0.9080     0.0010 c3         1 QED       0.155800
     14 N14         -0.2540     0.2270    -0.3330 n3         1 QED      -0.747600
     15 C15          0.9330     0.9110     0.2690 c3         1 QED       0.159300
     16 C16          1.1700     2.3760    -0.1870 c3         1 QED       0.099500
     17 N17          2.4150     2.9490     0.3480 ns         1 QED      -0.502900
     18 C18          3.6880     2.6430    -0.1070 c          1 QED       0.614800
     19 O19          3.8170     1.8590    -1.0390 o          1 QED      -0.547600
     20 C21         -0.2860    -1.2390    -0.0340 c3         1 QED       0.159300
     21 C22          0.9190    -2.0580    -0.5640 c3         1 QED       0.099500
     22 N23          0.7390    -3.5060    -0.3810 ns         1 QED      -0.502900
     23 C24          1.5940    -4.4680    -0.8920 c          1 QED       0.614800
     24 N25          6.1770     3.0640     0.2870 n          1 QED      -0.104000
     25 C26          7.2760     3.7180     0.9060 c          1 QED       0.534200
     26 C27          6.9150     4.6950     1.9310 cc         1 QED      -0.311200
     27 C28          5.6200     4.9820     2.2890 cd         1 QED      -0.080500
     28 C29          4.5550     4.2920     1.6140 cd         1 QED      -0.289500
     29 O30          6.5200     2.0500    -0.6830 oh         1 QED      -0.428600
     30 O31          8.4440     3.4890     0.6110 o          1 QED      -0.572000
     31 O32          2.5730    -4.1110    -1.5370 o          1 QED      -0.547600
     32 C33          1.2200    -5.9100    -0.5800 cc         1 QED       0.027900
     33 N34          1.9800    -6.9840    -1.1050 n          1 QED      -0.104000
     34 C35          1.6960    -8.3450    -0.8170 c          1 QED       0.534200
     35 C36          0.5400    -8.5630     0.0520 cc         1 QED      -0.311200
     36 C37         -0.2290    -7.5480     0.5660 cd         1 QED      -0.080500
     37 C38          0.1220    -6.1930     0.2430 cd         1 QED      -0.289500
     38 O39          3.0830    -6.7550    -2.0120 oh         1 QED      -0.428600
     39 O40          2.3620    -9.2760    -1.2560 o          1 QED      -0.572000
     40 C41          4.8280     3.3460     0.6170 cc         1 QED       0.027900
     41 H4          -8.9310     4.7240     0.7770 ha         1 QED       0.134000
     42 H5          -7.5560     4.5470    -1.2930 ha         1 QED       0.121000
     43 H6          -5.6420     3.0160    -1.3980 ha         1 QED       0.105000
     44 HO7         -5.5770     1.0770     2.6680 ho         1 QED       0.533000
     45 HO8         -8.1120     2.7210     3.6390 ho         1 QED       0.487000
     46 HN11        -4.2840     1.8340    -1.3180 hn         1 QED       0.322500
     47 H12         -3.0330    -0.6250    -0.4530 h1         1 QED       0.068200
     48 H12A        -2.5620     0.3770    -1.8410 h1         1 QED       0.068200
     49 H13         -1.4670     1.9780    -0.2280 h1         1 QED       0.041200
     50 H13A        -1.7370     0.8290     1.0790 h1         1 QED       0.041200
     51 H15          0.8520     0.9000     1.3650 h1         1 QED       0.043200
     52 H15A         1.8460     0.3600     0.0160 h1         1 QED       0.043200
     53 H16          1.2030     2.4100    -1.2840 h1         1 QED       0.065700
     54 H16A         0.3390     3.0100     0.1450 h1         1 QED       0.065700
     55 HN17         2.3460     3.5940     1.1230 hn         1 QED       0.322000
     56 H21         -0.3630    -1.3960     1.0500 h1         1 QED       0.043200
     57 H21A        -1.1780    -1.6890    -0.4850 h1         1 QED       0.043200
     58 H22          1.0470    -1.8500    -1.6340 h1         1 QED       0.065700
     59 H22A         1.8370    -1.7590    -0.0430 h1         1 QED       0.065700
     60 HN23        -0.0650    -3.8310     0.1370 hn         1 QED       0.322000
     61 H27          7.7550     5.1920     2.4050 ha         1 QED       0.216500
     62 H28          5.4060     5.7200     3.0620 ha         1 QED       0.193000
     63 H29          3.5430     4.5510     1.9080 ha         1 QED       0.206000
     64 HO30         6.5900     2.5350    -1.5360 ho         1 QED       0.495500
     65 H36          0.3220    -9.6030     0.2690 ha         1 QED       0.216500
     66 H37         -1.0820    -7.7670     1.2090 ha         1 QED       0.193000
     67 H38         -0.4960    -5.4120     0.6760 ha         1 QED       0.206000
     68 HO39         3.8750    -6.7030    -1.4310 ho         1 QED       0.495500
@<TRIPOS>BOND
     1     1     2 ar  
     2     1     6 ar  
     3     1     9 1   
     4     2     3 ar  
     5     2     7 1   
     6     3     4 ar  
     7     3     8 1   
     8     4     5 ar  
     9     4    41 1   
    10     5     6 ar  
    11     5    42 1   
    12     6    43 1   
    13     7    44 1   
    14     8    45 1   
    15     9    10 2   
    16     9    11 1   
    17    11    12 1   
    18    11    46 1   
    19    12    13 1   
    20    12    47 1   
    21    12    48 1   
    22    13    14 1   
    23    13    49 1   
    24    13    50 1   
    25    14    15 1   
    26    14    20 1   
    27    15    16 1   
    28    15    51 1   
    29    15    52 1   
    30    16    17 1   
    31    16    53 1   
    32    16    54 1   
    33    17    18 1   
    34    17    55 1   
    35    18    19 2   
    36    18    40 1   
    37    20    21 1   
    38    20    56 1   
    39    20    57 1   
    40    21    22 1   
    41    21    58 1   
    42    21    59 1   
    43    22    23 1   
    44    22    60 1   
    45    23    31 2   
    46    23    32 1   
    47    24    25 1   
    48    24    29 1   
    49    24    40 1   
    50    25    26 1   
    51    25    30 2   
    52    26    27 2   
    53    26    61 1   
    54    27    28 1   
    55    27    62 1   
    56    28    40 2   
    57    28    63 1   
    58    29    64 1   
    59    32    33 1   
    60    32    37 2   
    61    33    34 1   
    62    33    38 1   
    63    34    35 1   
    64    34    39 2   
    65    35    36 2   
    66    35    65 1   
    67    36    37 1   
    68    36    66 1   
    69    37    67 1   
    70    38    68 1   
@<TRIPOS>SUBSTRUCTURE
     1 QED         1 TEMP              0 ****  ****    0 ROOT
