@<TRIPOS>MOLECULE
QED
   68    70     1     0     0
SMALL
abcg2


@<TRIPOS>ATOM
      1 C1          -5.8020     2.0700     0.4160 ca         1 QED      -0.235600
      2 C2          -6.7910     1.5500     1.2620 ca         1 QED       0.134100
      3 C3          -7.9290     2.3190     1.5680 ca         1 QED       0.097100
      4 C4          -8.0750     3.5770     1.0180 ca         1 QED      -0.093000
      5 C5          -7.1010     4.0880     0.1610 ca         1 QED      -0.125000
      6 C6          -5.9790     3.3450    -0.1370 ca         1 QED      -0.084000
      7 O7          -6.7260     0.3380     1.8210 oh         1 QED      -0.581100
      8 O8          -8.8810     1.8380     2.3910 oh         1 QED      -0.532100
      9 C9          -4.6120     1.2220     0.1530 c          1 QED       0.627700
     10 O10         -4.5640     0.0600     0.5890 o          1 QED      -0.657100
     11 N11         -3.6080     1.7350    -0.5570 ns         1 QED      -0.477900
     12 C12         -2.3840     1.0130    -0.8350 c3         1 QED       0.096000
     13 C13         -1.3720     1.1260     0.3030 c3         1 QED       0.155800
     14 N14         -0.1700     0.3730    -0.0060 n3         1 QED      -0.747600
     15 C15          1.0430     0.9980     0.4860 c3         1 QED       0.159300
     16 C16          1.5030     2.0980    -0.4670 c3         1 QED       0.099500
     17 N17          2.6870     2.7800     0.0110 ns         1 QED      -0.502900
     18 C18          3.9220     2.3190    -0.2010 c          1 QED       0.614800
     19 O19          4.2010     1.3190    -0.8380 o          1 QED      -0.547600
     20 C21         -0.2800    -1.0300     0.3390 c3         1 QED       0.159300
     21 C22          0.5400    -1.8870    -0.6150 c3         1 QED       0.099500
     22 N23          0.4690    -3.2770    -0.2130 ns         1 QED      -0.502900
     23 C24          0.9950    -4.2610    -0.9420 c          1 QED       0.614800
     24 N25          6.0030     3.6120    -0.2810 n          1 QED      -0.104000
     25 C26          7.1110     4.3030     0.1870 c          1 QED       0.534200
     26 C27          7.1340     4.4750     1.6020 cc         1 QED      -0.311200
     27 C28          6.1230     4.0020     2.3850 cd         1 QED      -0.080500
     28 C29          5.0270     3.3220     1.8220 cd         1 QED      -0.289500
     29 O30          5.9280     3.4670    -1.6250 oh         1 QED      -0.428600
     30 O31          7.9310     4.6940    -0.6480 o          1 QED      -0.572000
     31 O32          1.5910    -4.1090    -1.9940 o          1 QED      -0.547600
     32 C33          0.7330    -5.6340    -0.3860 cc         1 QED       0.027900
     33 N34          1.7790    -6.4540    -0.1750 n          1 QED      -0.104000
     34 C35          1.7070    -7.7720     0.2550 c          1 QED       0.534200
     35 C36          0.3780    -8.2460     0.4550 cc         1 QED      -0.311200
     36 C37         -0.6980    -7.4340     0.2490 cd         1 QED      -0.080500
     37 C38         -0.5310    -6.1020    -0.1730 cd         1 QED      -0.289500
     38 O39          3.0280    -5.9570    -0.3360 oh         1 QED      -0.428600
     39 O40          2.7720    -8.3730     0.4240 o          1 QED      -0.572000
     40 C41          4.9950     3.1340     0.4710 cc         1 QED       0.027900
     41 H4          -8.9550     4.1600     1.2580 ha         1 QED       0.134000
     42 H5          -7.2320     5.0700    -0.2700 ha         1 QED       0.121000
     43 H6          -5.2510     3.7700    -0.8150 ha         1 QED       0.105000
     44 HO7         -5.8920    -0.0790     1.4750 ho         1 QED       0.533000
     45 HO8         -8.6480     0.9490     2.6880 ho         1 QED       0.487000
     46 HN11        -3.6360     2.7020    -0.8320 hn         1 QED       0.322500
     47 H12         -2.6240    -0.0300    -1.0420 h1         1 QED       0.068200
     48 H12A        -1.9510     1.4310    -1.7430 h1         1 QED       0.068200
     49 H13         -1.1160     2.1790     0.4310 h1         1 QED       0.041200
     50 H13A        -1.8260     0.8030     1.2500 h1         1 QED       0.041200
     51 H15          0.9190     1.4060     1.5000 h1         1 QED       0.043200
     52 H15A         1.8330     0.2480     0.5500 h1         1 QED       0.043200
     53 H16          1.6990     1.6700    -1.4500 h1         1 QED       0.065700
     54 H16A         0.7280     2.8540    -0.5920 h1         1 QED       0.065700
     55 HN17         2.5660     3.6230     0.5490 hn         1 QED       0.322000
     56 H21          0.0240    -1.2230     1.3800 h1         1 QED       0.043200
     57 H21A        -1.3260    -1.3350     0.2640 h1         1 QED       0.043200
     58 H22          0.1480    -1.7730    -1.6270 h1         1 QED       0.065700
     59 H22A         1.5830    -1.5590    -0.6320 h1         1 QED       0.065700
     60 HN23         0.0620    -3.5030     0.6820 hn         1 QED       0.322000
     61 H27          7.9790     4.9990     2.0260 ha         1 QED       0.216500
     62 H28          6.1620     4.1490     3.4560 ha         1 QED       0.193000
     63 H29          4.2330     2.9290     2.4390 ha         1 QED       0.206000
     64 HO30         6.7420     3.9210    -1.9300 ho         1 QED       0.495500
     65 H36          0.2580    -9.2680     0.7840 ha         1 QED       0.216500
     66 H37         -1.6960    -7.8160     0.4130 ha         1 QED       0.193000
     67 H38         -1.3800    -5.4590    -0.3540 ha         1 QED       0.206000
     68 HO39         3.5910    -6.7150    -0.0710 ho         1 QED       0.495500
@<TRIPOS>BOND
     1     1     2 ar  
     2     1     6 ar  
     3     1     9 1   
     4     2     3 ar  
     5     2     7 1   
     6     3     4 ar  
     7     3     8 1   
     8     4     5 ar  
     9     4    41 1   
    10     5     6 ar  
    11     5    42 1   
    12     6    43 1   
    13     7    44 1   
    14     8    45 1   
    15     9    10 2   
    16     9    11 1   
    17    11    12 1   
    18    11    46 1   
    19    12    13 1   
    20    12    47 1   
    21    12    48 1   
    22    13    14 1   
    23    13    49 1   
    24    13    50 1   
    25    14    15 1   
    26    14    20 1   
    27    15    16 1   
    28    15    51 1   
    29    15    52 1   
    30    16    17 1   
    31    16    53 1   
    32    16    54 1   
    33    17    18 1   
    34    17    55 1   
    35    18    19 2   
    36    18    40 1   
    37    20    21 1   
    38    20    56 1   
    39    20    57 1   
    40    21    22 1   
    41    21    58 1   
    42    21    59 1   
    43    22    23 1   
    44    22    60 1   
    45    23    31 2   
    46    23    32 1   
    47    24    25 1   
    48    24    29 1   
    49    24    40 1   
    50    25    26 1   
    51    25    30 2   
    52    26    27 2   
    53    26    61 1   
    54    27    28 1   
    55    27    62 1   
    56    28    40 2   
    57    28    63 1   
    58    29    64 1   
    59    32    33 1   
    60    32    37 2   
    61    33    34 1   
    62    33    38 1   
    63    34    35 1   
    64    34    39 2   
    65    35    36 2   
    66    35    65 1   
    67    36    37 1   
    68    36    66 1   
    69    37    67 1   
    70    38    68 1   
@<TRIPOS>SUBSTRUCTURE
     1 QED         1 TEMP              0 ****  ****    0 ROOT
