@<TRIPOS>MOLECULE
QEE
   40    42     1     0     0
SMALL
No Charge or Current Charge


@<TRIPOS>ATOM
      1 N12         28.2830   -15.2220    43.4150 na         1 QEE       0.061300
      2 C15         30.0160   -16.2360    42.6190 cc         1 QEE      -0.145200
      3 C20         32.4090   -15.7830    42.4160 cc         1 QEE      -0.191000
      4 C21         29.6470   -15.0180    43.1160 cd         1 QEE       0.087100
      5 C24         25.7410   -13.5540    45.5400 ca         1 QEE      -0.008000
      6 C04         23.3730   -10.6330    47.4740 c3         1 QEE       0.210000
      7 C05         24.2010    -9.7600    48.4520 c3         1 QEE      -0.109100
      8 C06         22.4480   -11.5800    48.2700 c3         1 QEE      -0.109100
      9 C07         22.5360    -9.7980    46.4710 c3         1 QEE      -0.109100
     10 C08         26.0190   -12.2000    45.2800 ca         1 QEE      -0.198600
     11 C09         27.0630   -11.9000    44.3970 ca         1 QEE       0.410900
     12 C11         27.5580   -14.1650    44.0170 ca         1 QEE       0.468500
     13 C14         28.8910   -17.0780    42.6160 cc         1 QEE       0.291900
     14 C19         33.3900   -16.5210    41.8090 cd         1 QEE       0.184900
     15 C23         26.5190   -14.5300    44.9020 ca         1 QEE      -0.197000
     16 N10         27.8140   -12.8470    43.7870 nb         1 QEE      -0.652000
     17 N13         27.8050   -16.5020    43.1070 nd         1 QEE      -0.454800
     18 N16         31.2950   -16.5290    42.1330 na         1 QEE       0.256000
     19 N17         31.5500   -17.6750    41.4550 nc         1 QEE      -0.187800
     20 N18         32.8390   -17.6570    41.2340 nd         1 QEE      -0.358000
     21 O01         25.4970    -9.9070    45.6750 o          1 QEE      -0.485000
     22 O03         24.2530   -11.5250    46.7510 os         1 QEE      -0.464100
     23 O22         30.3130   -13.8440    43.2360 oh         1 QEE      -0.510100
     24 H201        32.4490   -14.8720    42.9890 h4         1 QEE       0.171000
     25 H241        24.9430   -13.8530    46.2190 ha         1 QEE       0.144000
     26 H051        23.5400    -9.2530    49.1650 hc         1 QEE       0.051144
     27 H053        24.9050   -10.3760    49.0230 hc         1 QEE       0.051144
     28 H052        24.7670    -8.9810    47.9290 hc         1 QEE       0.051144
     29 H061        21.7250   -11.0100    48.8670 hc         1 QEE       0.051144
     30 H063        21.8880   -12.2360    47.5940 hc         1 QEE       0.051144
     31 H062        23.0300   -12.2100    48.9530 hc         1 QEE       0.051144
     32 H072        21.7100    -9.2950    46.9890 hc         1 QEE       0.051144
     33 H073        23.1330    -9.0190    45.9850 hc         1 QEE       0.051144
     34 H071        22.1050   -10.4410    45.6940 hc         1 QEE       0.051144
     35 H091        27.3220   -10.8680    44.1620 h4         1 QEE       0.055100
     36 H141        28.8310   -18.1010    42.2680 h4         1 QEE       0.063100
     37 H191        34.4520   -16.3140    41.7640 h4         1 QEE       0.050100
     38 H231        26.3140   -15.5790    45.0970 ha         1 QEE       0.145000
     39 H221        29.6270   -13.1670    43.4650 ho         1 QEE       0.489000
     40 C02         25.2470   -11.0810    45.9070 c          1 QEE       0.628700
@<TRIPOS>BOND
     1     1     4 1   
     2     1    12 1   
     3     1    17 1   
     4     2     4 2   
     5     2    13 1   
     6     2    18 1   
     7     3    14 2   
     8     3    18 1   
     9     3    24 1   
    10     4    23 1   
    11     5    10 ar  
    12     5    15 ar  
    13     5    25 1   
    14     6     7 1   
    15     6     8 1   
    16     6     9 1   
    17     6    22 1   
    18     7    26 1   
    19     7    27 1   
    20     7    28 1   
    21     8    29 1   
    22     8    30 1   
    23     8    31 1   
    24     9    32 1   
    25     9    33 1   
    26     9    34 1   
    27    10    11 ar  
    28    10    40 1   
    29    11    16 ar  
    30    11    35 1   
    31    12    15 ar  
    32    12    16 ar  
    33    13    17 2   
    34    13    36 1   
    35    14    20 1   
    36    14    37 1   
    37    15    38 1   
    38    18    19 1   
    39    19    20 2   
    40    21    40 2   
    41    22    40 1   
    42    23    39 1   
@<TRIPOS>SUBSTRUCTURE
     1 QEE         1 TEMP              0 ****  ****    0 ROOT
