@<TRIPOS>MOLECULE
QEE
   40    42     1     0     0
SMALL
bcc


@<TRIPOS>ATOM
      1 N12         28.3220   -14.6860    42.9780 na         1 QEE       0.010600
      2 C15         30.0600   -15.8710    42.4060 cc         1 QEE      -0.210500
      3 C20         31.8170   -17.3630    43.3000 cc         1 QEE      -0.223600
      4 C21         29.5510   -15.0800    43.4040 cd         1 QEE       0.137800
      5 C24         26.2860   -13.1410    45.6130 ca         1 QEE      -0.026000
      6 C04         23.6170   -10.5470    47.5120 c3         1 QEE       0.186800
      7 C05         24.0690    -9.0940    47.4610 c3         1 QEE      -0.109100
      8 C06         23.8290   -11.1120    48.9100 c3         1 QEE      -0.109100
      9 C07         22.1600   -10.7080    47.1000 c3         1 QEE      -0.109100
     10 C08         25.5980   -12.2180    44.8320 ca         1 QEE      -0.263900
     11 C09         25.8570   -12.2100    43.4650 ca         1 QEE       0.476200
     12 C11         27.3900   -13.8660    43.6440 ca         1 QEE       0.533800
     13 C14         29.0730   -15.8860    41.4040 cc         1 QEE       0.357200
     14 C19         33.0540   -17.6620    42.8020 cd         1 QEE       0.250200
     15 C23         27.1930   -13.9950    45.0130 ca         1 QEE      -0.280300
     16 N10         26.7380   -13.0060    42.8840 nb         1 QEE      -0.652000
     17 N13         28.0430   -15.1570    41.7460 nd         1 QEE      -0.454800
     18 N16         31.3080   -16.4970    42.4000 na         1 QEE       0.205300
     19 N17         32.1720   -16.2770    41.4120 nc         1 QEE      -0.187800
     20 N18         33.2210   -16.9790    41.6470 nd         1 QEE      -0.358000
     21 O01         24.0250   -10.4570    44.6870 o          1 QEE      -0.534000
     22 O03         24.4860   -11.3820    46.6860 os         1 QEE      -0.440900
     23 O22         30.1070   -14.7900    44.5720 oh         1 QEE      -0.471100
     24 H201        31.2760   -17.6900    44.1710 h4         1 QEE       0.189000
     25 H241        26.1140   -13.2150    46.6770 ha         1 QEE       0.162000
     26 H051        23.5170    -8.5280    48.2120 hc         1 QEE       0.051144
     27 H053        25.1310    -9.0050    47.6950 hc         1 QEE       0.051144
     28 H052        23.8820    -8.6300    46.4950 hc         1 QEE       0.051144
     29 H061        23.2240   -10.5540    49.6240 hc         1 QEE       0.051144
     30 H063        23.5320   -12.1600    48.9660 hc         1 QEE       0.051144
     31 H062        24.8720   -11.0300    49.2190 hc         1 QEE       0.051144
     32 H072        21.5300   -10.2170    47.8420 hc         1 QEE       0.051144
     33 H073        21.9440   -10.2590    46.1330 hc         1 QEE       0.051144
     34 H071        21.8730   -11.7600    47.0700 hc         1 QEE       0.051144
     35 H091        25.3340   -11.5200    42.8130 h4         1 QEE       0.055100
     36 H141        29.1000   -16.3990    40.4550 h4         1 QEE       0.063100
     37 H191        33.8100   -18.3170    43.2010 h4         1 QEE       0.050100
     38 H231        27.7040   -14.7470    45.5960 ha         1 QEE       0.163000
     39 H221        30.0200   -13.8560    44.8100 ho         1 QEE       0.450000
     40 C02         24.6110   -11.2490    45.3830 c          1 QEE       0.677700
@<TRIPOS>BOND
     1     1     4 1   
     2     1    12 1   
     3     1    17 1   
     4     2     4 2   
     5     2    13 1   
     6     2    18 1   
     7     3    14 2   
     8     3    18 1   
     9     3    24 1   
    10     4    23 1   
    11     5    10 ar  
    12     5    15 ar  
    13     5    25 1   
    14     6     7 1   
    15     6     8 1   
    16     6     9 1   
    17     6    22 1   
    18     7    26 1   
    19     7    27 1   
    20     7    28 1   
    21     8    29 1   
    22     8    30 1   
    23     8    31 1   
    24     9    32 1   
    25     9    33 1   
    26     9    34 1   
    27    10    11 ar  
    28    10    40 1   
    29    11    16 ar  
    30    11    35 1   
    31    12    15 ar  
    32    12    16 ar  
    33    13    17 2   
    34    13    36 1   
    35    14    20 1   
    36    14    37 1   
    37    15    38 1   
    38    18    19 1   
    39    19    20 2   
    40    21    40 2   
    41    22    40 1   
    42    23    39 1   
@<TRIPOS>SUBSTRUCTURE
     1 QEE         1 TEMP              0 ****  ****    0 ROOT
