@<TRIPOS>MOLECULE
QEF
   22    23     1     0     0
SMALL
abcg2


@<TRIPOS>ATOM
      1 C01         39.5380    16.1160    33.0140 c3         1 QEF      -0.148400
      2 C02         40.7120    16.9560    32.5920 ca         1 QEF       0.407300
      3 C04         41.9000    18.0020    30.9240 ca         1 QEF       0.291000
      4 C05         42.0380    18.3040    29.5480 ca         1 QEF      -0.068000
      5 C06         43.0690    19.0840    29.0870 ca         1 QEF      -0.127000
      6 C07         43.9920    19.5840    30.0120 ca         1 QEF       0.150000
      7 C09         43.9160    19.3260    31.3510 ca         1 QEF      -0.127000
      8 C10         42.8650    18.5160    31.8350 ca         1 QEF      -0.107000
      9 C11         42.7100    18.1810    33.2210 ca         1 QEF       0.357000
     10 C13         41.6200    17.4040    33.5690 ca         1 QEF      -0.265000
     11 F08         45.0010    20.3650    29.5450 f          1 QEF      -0.185000
     12 N03         40.8400    17.2320    31.3060 nb         1 QEF      -0.699000
     13 N12         43.5800    18.6540    34.1630 nv         1 QEF      -1.090000
     14 H012        38.9540    15.8180    32.1460 hc         1 QEF       0.052700
     15 H013        39.8730    15.2210    33.5430 hc         1 QEF       0.052700
     16 H011        38.8940    16.6730    33.7000 hc         1 QEF       0.052700
     17 H051        41.3010    17.9050    28.8640 ha         1 QEF       0.136000
     18 H061        43.1790    19.3210    28.0370 ha         1 QEF       0.135000
     19 H091        44.6570    19.7590    32.0080 ha         1 QEF       0.124000
     20 H131        41.4660    17.1310    34.6060 ha         1 QEF       0.119000
     21 H122        43.5350    18.2320    35.0780 hn         1 QEF       0.469500
     22 H121        44.5110    18.9120    33.8800 hn         1 QEF       0.469500
@<TRIPOS>BOND
     1     1     2 1   
     2     1    14 1   
     3     1    15 1   
     4     1    16 1   
     5     2    10 ar  
     6     2    12 ar  
     7     3     4 ar  
     8     3     8 ar  
     9     3    12 ar  
    10     4     5 ar  
    11     4    17 1   
    12     5     6 ar  
    13     5    18 1   
    14     6     7 ar  
    15     6    11 1   
    16     7     8 ar  
    17     7    19 1   
    18     8     9 ar  
    19     9    10 ar  
    20     9    13 1   
    21    10    20 1   
    22    13    21 1   
    23    13    22 1   
@<TRIPOS>SUBSTRUCTURE
     1 QEF         1 TEMP              0 ****  ****    0 ROOT
