@<TRIPOS>MOLECULE
QEF
   22    23     1     0     0
SMALL
No Charge or Current Charge


@<TRIPOS>ATOM
      1 C01         39.5270    16.1080    33.0230 c3         1 QEF      -0.148400
      2 C02         40.7230    16.9540    32.6340 ca         1 QEF       0.407300
      3 C04         41.8740    18.0280    30.9210 ca         1 QEF       0.291000
      4 C05         41.9870    18.3580    29.5560 ca         1 QEF      -0.068000
      5 C06         43.0530    19.1450    29.0850 ca         1 QEF      -0.127000
      6 C07         44.0190    19.6130    29.9830 ca         1 QEF       0.150000
      7 C09         43.9300    19.2980    31.3470 ca         1 QEF      -0.127000
      8 C10         42.8590    18.5030    31.8260 ca         1 QEF      -0.107000
      9 C11         42.7270    18.1600    33.1900 ca         1 QEF       0.357000
     10 C13         41.6470    17.3810    33.5910 ca         1 QEF      -0.265000
     11 F08         45.0430    20.3710    29.5340 f          1 QEF      -0.185000
     12 N03         40.8320    17.2700    31.3290 nb         1 QEF      -0.699000
     13 N12         43.6220    18.5610    34.1490 nv         1 QEF      -1.090000
     14 H012        39.2840    15.3760    32.2430 hc         1 QEF       0.052700
     15 H013        39.7170    15.5520    33.9480 hc         1 QEF       0.052700
     16 H011        38.6440    16.7360    33.1840 hc         1 QEF       0.052700
     17 H051        41.2380    17.9980    28.8570 ha         1 QEF       0.136000
     18 H061        43.1270    19.3930    28.0290 ha         1 QEF       0.135000
     19 H091        44.6950    19.6810    32.0160 ha         1 QEF       0.124000
     20 H131        41.5160    17.1050    34.6330 ha         1 QEF       0.119000
     21 H122        43.5690    18.1520    35.0800 hn         1 QEF       0.469500
     22 H121        44.5180    18.9540    33.8700 hn         1 QEF       0.469500
@<TRIPOS>BOND
     1     1     2 1   
     2     1    14 1   
     3     1    15 1   
     4     1    16 1   
     5     2    10 ar  
     6     2    12 ar  
     7     3     4 ar  
     8     3     8 ar  
     9     3    12 ar  
    10     4     5 ar  
    11     4    17 1   
    12     5     6 ar  
    13     5    18 1   
    14     6     7 ar  
    15     6    11 1   
    16     7     8 ar  
    17     7    19 1   
    18     8     9 ar  
    19     9    10 ar  
    20     9    13 1   
    21    10    20 1   
    22    13    21 1   
    23    13    22 1   
@<TRIPOS>SUBSTRUCTURE
     1 QEF         1 TEMP              0 ****  ****    0 ROOT
