@<TRIPOS>MOLECULE
QEG
   71    73     1     0     0
SMALL
abcg2


@<TRIPOS>ATOM
      1 O2          -2.4460     0.8530    -1.1730 o          1 QEG      -0.584100
      2 S7           6.6830     2.9940     0.0580 ss         1 QEG       0.223000
      3 C11         -1.8120    -0.0650    -0.6730 c          1 QEG       0.593100
      4 C12         -0.3260     0.0280    -0.4110 c3         1 QEG      -0.155400
      5 C13          0.4280     0.6880    -1.5660 c3         1 QEG      -0.026100
      6 C14          2.8270    -0.0850    -1.4910 ca         1 QEG      -0.105500
      7 C15          3.6260     2.2410    -0.2320 ca         1 QEG      -0.098500
      8 C16          4.5790     1.2580    -0.5040 ca         1 QEG      -0.019000
      9 C17          4.1560     0.0910    -1.1450 ca         1 QEG      -0.098500
     10 C18          5.9820     1.4260    -0.1280 cc         1 QEG      -0.147000
     11 C19          6.9170     0.4580     0.1070 cd         1 QEG      -0.122000
     12 C20          8.2050     0.9710     0.4410 cd         1 QEG      -0.056000
     13 C21          9.3730     0.1340     0.7500 ca         1 QEG      -0.006000
     14 C22         10.6700     0.5930     0.5110 ca         1 QEG      -0.100500
     15 C23         11.7700    -0.1930     0.8210 ca         1 QEG      -0.112000
     16 C24         11.5950    -1.4580     1.3690 ca         1 QEG      -0.112000
     17 C25         10.3110    -1.9270     1.6060 ca         1 QEG      -0.112000
     18 C26          9.2110    -1.1390     1.3000 ca         1 QEG      -0.100500
     19 C27          1.8750     0.8970    -1.2230 ca         1 QEG      -0.068300
     20 C28          2.3000     2.0620    -0.5900 ca         1 QEG      -0.105500
     21 C29          8.2100     2.3390     0.4520 cc         1 QEG      -0.245000
     22 N2          -2.4010    -1.2170    -0.3060 ns         1 QEG      -0.491900
     23 C7          -3.8330    -1.3660    -0.3320 c3         1 QEG       0.029700
     24 C6          -4.4850    -0.4290     0.6830 c          1 QEG       0.593100
     25 O1          -3.9750    -0.2000     1.7680 o          1 QEG      -0.625100
     26 C8          -4.2230    -2.8070    -0.0010 c3         1 QEG      -0.078400
     27 C9          -3.7930    -3.7750    -1.0910 c3         1 QEG      -0.160400
     28 C10         -4.1800    -5.2120    -0.8010 c          1 QEG       0.600100
     29 O4E         -4.9380    -5.5210     0.1070 o          1 QEG      -0.593100
     30 N4          -3.6280    -6.1140    -1.6280 nt         1 QEG      -0.618000
     31 N1          -5.6660     0.0760     0.3050 ns         1 QEG      -0.454900
     32 C2          -6.5020     0.8170     1.2100 c3         1 QEG       0.022700
     33 C1          -7.0620    -0.1130     2.2890 c          1 QEG       0.595100
     34 O9          -7.2120    -1.3080     2.0980 o          1 QEG      -0.624100
     35 C3          -7.6420     1.4980     0.4480 c3         1 QEG      -0.062400
     36 C4          -7.1370     2.5180    -0.5600 c3         1 QEG      -0.214400
     37 C5          -8.2340     3.2930    -1.3130 c          1 QEG       0.718000
     38 O8E         -9.4210     3.0100    -1.0630 o          1 QEG      -0.737000
     39 O8          -7.8300     4.1520    -2.1250 o          1 QEG      -0.737000
     40 N9          -7.4040     0.5070     3.4260 nt         1 QEG      -0.606000
     41 H12         -0.2010     0.6290     0.4960 hc         1 QEG       0.059700
     42 H12A         0.1000    -0.9540    -0.1920 hc         1 QEG       0.059700
     43 H13          0.3460     0.0620    -2.4570 hc         1 QEG       0.064700
     44 H13A        -0.0390     1.6450    -1.8030 hc         1 QEG       0.064700
     45 H14          2.5260    -0.9980    -1.9920 ha         1 QEG       0.117500
     46 H15          3.9120     3.1530     0.2780 ha         1 QEG       0.112500
     47 H17          4.8750    -0.6800    -1.3910 ha         1 QEG       0.112500
     48 H19          6.6930    -0.5980     0.0410 ha         1 QEG       0.135000
     49 H22         10.8260     1.5670     0.0640 ha         1 QEG       0.113500
     50 H23         12.7660     0.1810     0.6250 ha         1 QEG       0.110000
     51 H24         12.4540    -2.0720     1.6070 ha         1 QEG       0.109000
     52 H25         10.1600    -2.9090     2.0350 ha         1 QEG       0.110000
     53 H26          8.2180    -1.5160     1.5110 ha         1 QEG       0.113500
     54 H28          1.5820     2.8430    -0.3680 ha         1 QEG       0.117500
     55 H29          9.0300     2.9980     0.6930 h4         1 QEG       0.149000
     56 HN2         -1.8590    -1.9020     0.1970 hn         1 QEG       0.312500
     57 H7          -4.2000    -1.1240    -1.3350 h1         1 QEG       0.077700
     58 H8          -3.7850    -3.0860     0.9610 hc         1 QEG       0.081200
     59 H8A         -5.3060    -2.8490     0.1280 hc         1 QEG       0.081200
     60 H9          -4.2540    -3.4870    -2.0420 hc         1 QEG       0.055700
     61 H9A         -2.7150    -3.7250    -1.2600 hc         1 QEG       0.055700
     62 HN4         -3.0440    -5.8390    -2.3980 hn         1 QEG       0.308000
     63 HN4A        -3.8780    -7.0870    -1.5620 hn         1 QEG       0.308000
     64 HN1         -6.0540    -0.2000    -0.5840 hn         1 QEG       0.329500
     65 H2          -5.8990     1.5940     1.6900 h1         1 QEG       0.072700
     66 H3          -8.2540     0.7380    -0.0450 hc         1 QEG       0.055200
     67 H30         -8.2930     1.9910     1.1730 hc         1 QEG       0.055200
     68 H4          -6.4890     3.2400    -0.0510 hc         1 QEG       0.025200
     69 H31         -6.4940     2.0350    -1.3030 hc         1 QEG       0.025200
     70 HN9         -7.2440     1.4900     3.5650 hn         1 QEG       0.307500
     71 HN9A        -7.8430    -0.0000     4.1770 hn         1 QEG       0.307500
@<TRIPOS>BOND
     1     1     3 2   
     2     2    10 1   
     3     2    21 1   
     4     3     4 1   
     5     3    22 1   
     6     4     5 1   
     7     4    41 1   
     8     4    42 1   
     9     5    19 1   
    10     5    43 1   
    11     5    44 1   
    12     6     9 ar  
    13     6    19 ar  
    14     6    45 1   
    15     7     8 ar  
    16     7    20 ar  
    17     7    46 1   
    18     8     9 ar  
    19     8    10 1   
    20     9    47 1   
    21    10    11 2   
    22    11    12 1   
    23    11    48 1   
    24    12    13 1   
    25    12    21 2   
    26    13    14 ar  
    27    13    18 ar  
    28    14    15 ar  
    29    14    49 1   
    30    15    16 ar  
    31    15    50 1   
    32    16    17 ar  
    33    16    51 1   
    34    17    18 ar  
    35    17    52 1   
    36    18    53 1   
    37    19    20 ar  
    38    20    54 1   
    39    21    55 1   
    40    22    23 1   
    41    22    56 1   
    42    23    24 1   
    43    23    26 1   
    44    23    57 1   
    45    24    25 2   
    46    24    31 1   
    47    26    27 1   
    48    26    58 1   
    49    26    59 1   
    50    27    28 1   
    51    27    60 1   
    52    27    61 1   
    53    28    29 2   
    54    28    30 1   
    55    30    62 1   
    56    30    63 1   
    57    31    32 1   
    58    31    64 1   
    59    32    33 1   
    60    32    35 1   
    61    32    65 1   
    62    33    34 2   
    63    33    40 1   
    64    35    36 1   
    65    35    66 1   
    66    35    67 1   
    67    36    37 1   
    68    36    68 1   
    69    36    69 1   
    70    37    38 1   
    71    37    39 1   
    72    40    70 1   
    73    40    71 1   
@<TRIPOS>SUBSTRUCTURE
     1 QEG         1 TEMP              0 ****  ****    0 ROOT
