@<TRIPOS>MOLECULE
QEG
   71    73     1     0     0
SMALL
No Charge or Current Charge


@<TRIPOS>ATOM
      1 O2          -2.3710     0.2310    -2.7300 o          1 QEG      -0.584100
      2 S7           7.3960     0.4370    -2.5710 ss         1 QEG       0.223000
      3 C11         -1.8180     0.0220    -1.6600 c          1 QEG       0.593100
      4 C12         -0.3270     0.2840    -1.4420 c3         1 QEG      -0.155400
      5 C13          0.5360    -0.8030    -2.1210 c3         1 QEG      -0.026100
      6 C14          2.6860    -1.1510    -0.8090 ca         1 QEG      -0.105500
      7 C15          4.1260     0.4650    -2.5930 ca         1 QEG      -0.098500
      8 C16          4.7940    -0.1130    -1.4950 ca         1 QEG      -0.019000
      9 C17          4.0600    -0.9280    -0.6070 ca         1 QEG      -0.098500
     10 C18          6.2280     0.1240    -1.3030 cc         1 QEG      -0.147000
     11 C19          6.7990     0.1710    -0.0560 cd         1 QEG      -0.122000
     12 C20          8.2070     0.4360    -0.0740 cd         1 QEG      -0.056000
     13 C21          9.0700     0.5360     1.1320 ca         1 QEG      -0.006000
     14 C22         10.4510     0.8200     1.0140 ca         1 QEG      -0.100500
     15 C23         11.2710     0.9160     2.1520 ca         1 QEG      -0.112000
     16 C24         10.7270     0.7290     3.4310 ca         1 QEG      -0.112000
     17 C25          9.3600     0.4460     3.5680 ca         1 QEG      -0.112000
     18 C26          8.5390     0.3500     2.4310 ca         1 QEG      -0.100500
     19 C27          2.0250    -0.5660    -1.9040 ca         1 QEG      -0.068300
     20 C28          2.7530     0.2430    -2.7950 ca         1 QEG      -0.105500
     21 C29          8.6710     0.5960    -1.3660 cc         1 QEG      -0.245000
     22 N2          -2.4970    -0.4350    -0.5520 ns         1 QEG      -0.491900
     23 C7          -3.9390    -0.7700    -0.5080 c3         1 QEG       0.029700
     24 C6          -4.5580    -0.3040     0.8440 c          1 QEG       0.593100
     25 O1          -3.8800    -0.0050     1.8210 o          1 QEG      -0.625100
     26 C8          -4.1700    -2.2900    -0.7370 c3         1 QEG      -0.078400
     27 C9          -3.6670    -2.8210    -2.1070 c3         1 QEG      -0.160400
     28 C10         -3.9660    -4.2970    -2.3960 c          1 QEG       0.600100
     29 O4E         -4.5170    -5.0490    -1.6100 o          1 QEG      -0.593100
     30 N4          -3.5720    -4.7450    -3.6060 nt         1 QEG      -0.618000
     31 N1          -5.9370    -0.2560     0.8660 ns         1 QEG      -0.454900
     32 C2          -6.7630     0.1660     2.0220 c3         1 QEG       0.022700
     33 C1          -7.9900    -0.7830     2.1780 c          1 QEG       0.595100
     34 O9          -8.2710    -1.6670     1.3830 o          1 QEG      -0.624100
     35 C3          -7.1890     1.6590     1.9170 c3         1 QEG      -0.062400
     36 C4          -6.0130     2.6690     1.8210 c3         1 QEG      -0.214400
     37 C5          -6.5480     4.1100     1.8430 c          1 QEG       0.718000
     38 O8E         -6.8500     4.6290     0.7800 o          1 QEG      -0.737000
     39 O8          -6.7000     4.6510     2.9280 o          1 QEG      -0.737000
     40 N9          -8.7760    -0.5870     3.2610 nt         1 QEG      -0.606000
     41 H12         -0.0700     1.2550    -1.8800 hc         1 QEG       0.059700
     42 H12A        -0.0970     0.2880    -0.3690 hc         1 QEG       0.059700
     43 H13          0.2500    -1.7880    -1.7310 hc         1 QEG       0.064700
     44 H13A         0.3120    -0.8260    -3.1950 hc         1 QEG       0.064700
     45 H14          2.1380    -1.7810    -0.1130 ha         1 QEG       0.117500
     46 H15          4.6670     1.0990    -3.2920 ha         1 QEG       0.112500
     47 H17          4.5510    -1.4050     0.2370 ha         1 QEG       0.112500
     48 H19          6.2250     0.0310     0.8520 ha         1 QEG       0.135000
     49 H22         10.9080     0.9710     0.0410 ha         1 QEG       0.113500
     50 H23         12.3310     1.1350     2.0410 ha         1 QEG       0.110000
     51 H24         11.3610     0.8030     4.3110 ha         1 QEG       0.109000
     52 H25          8.9340     0.2990     4.5580 ha         1 QEG       0.110000
     53 H26          7.4880     0.1280     2.5790 ha         1 QEG       0.113500
     54 H28          2.2540     0.7040    -3.6450 ha         1 QEG       0.117500
     55 H29          9.6710     0.8040    -1.7190 h4         1 QEG       0.149000
     56 HN2         -1.9610    -0.5280     0.3040 hn         1 QEG       0.312500
     57 H7          -4.4580    -0.2110    -1.2970 h1         1 QEG       0.077700
     58 H8          -3.6800    -2.8530     0.0680 hc         1 QEG       0.081200
     59 H8A         -5.2430    -2.5040    -0.6560 hc         1 QEG       0.081200
     60 H9          -4.0570    -2.2280    -2.9430 hc         1 QEG       0.055700
     61 H9A         -2.5880    -2.6780    -2.2350 hc         1 QEG       0.055700
     62 HN4         -3.1160    -4.1190    -4.2530 hn         1 QEG       0.308000
     63 HN4A        -3.7410    -5.7090    -3.8550 hn         1 QEG       0.308000
     64 HN1         -6.4180    -0.5530     0.0240 hn         1 QEG       0.329500
     65 H2          -6.1710     0.0450     2.9390 h1         1 QEG       0.072700
     66 H3          -7.8400     1.7840     1.0420 hc         1 QEG       0.055200
     67 H30         -7.7940     1.9210     2.7930 hc         1 QEG       0.055200
     68 H4          -5.3850     2.4830     2.7010 hc         1 QEG       0.025200
     69 H31         -5.5100     2.4690     0.8670 hc         1 QEG       0.025200
     70 HN9         -8.5530     0.1370     3.9280 hn         1 QEG       0.307500
     71 HN9A        -9.5820    -1.1790     3.3970 hn         1 QEG       0.307500
@<TRIPOS>BOND
     1     1     3 2   
     2     2    10 1   
     3     2    21 1   
     4     3     4 1   
     5     3    22 1   
     6     4     5 1   
     7     4    41 1   
     8     4    42 1   
     9     5    19 1   
    10     5    43 1   
    11     5    44 1   
    12     6     9 ar  
    13     6    19 ar  
    14     6    45 1   
    15     7     8 ar  
    16     7    20 ar  
    17     7    46 1   
    18     8     9 ar  
    19     8    10 1   
    20     9    47 1   
    21    10    11 2   
    22    11    12 1   
    23    11    48 1   
    24    12    13 1   
    25    12    21 2   
    26    13    14 ar  
    27    13    18 ar  
    28    14    15 ar  
    29    14    49 1   
    30    15    16 ar  
    31    15    50 1   
    32    16    17 ar  
    33    16    51 1   
    34    17    18 ar  
    35    17    52 1   
    36    18    53 1   
    37    19    20 ar  
    38    20    54 1   
    39    21    55 1   
    40    22    23 1   
    41    22    56 1   
    42    23    24 1   
    43    23    26 1   
    44    23    57 1   
    45    24    25 2   
    46    24    31 1   
    47    26    27 1   
    48    26    58 1   
    49    26    59 1   
    50    27    28 1   
    51    27    60 1   
    52    27    61 1   
    53    28    29 2   
    54    28    30 1   
    55    30    62 1   
    56    30    63 1   
    57    31    32 1   
    58    31    64 1   
    59    32    33 1   
    60    32    35 1   
    61    32    65 1   
    62    33    34 2   
    63    33    40 1   
    64    35    36 1   
    65    35    66 1   
    66    35    67 1   
    67    36    37 1   
    68    36    68 1   
    69    36    69 1   
    70    37    38 1   
    71    37    39 1   
    72    40    70 1   
    73    40    71 1   
@<TRIPOS>SUBSTRUCTURE
     1 QEG         1 TEMP              0 ****  ****    0 ROOT
