@<TRIPOS>MOLECULE
QEH
   89    88     1     0     0
SMALL
abcg2


@<TRIPOS>ATOM
      1 O1          -1.8250    -2.8070    -0.8880 o          1 QEH      -0.492000
      2 C1          -1.8840    -1.6240    -0.6640 c          1 QEH       0.591100
      3 O1A         -3.0270    -0.9790    -0.4520 os         1 QEH      -0.438100
      4 C1A         -4.2390    -1.7300    -0.5070 c3         1 QEH       0.125600
      5 C2A         -5.3730    -0.7910    -0.1310 c3         1 QEH       0.156300
      6 O2A         -5.4590     0.3160    -0.9920 oh         1 QEH      -0.642000
      7 C3A         -6.6730    -1.5780    -0.0580 c3         1 QEH       0.192600
      8 O3A         -7.6840    -0.7260     0.4340 os         1 QEH      -0.586400
      9 P           -9.2400    -1.1840     0.2260 p5         1 QEH       1.382800
     10 O1B         -9.4380    -2.5910     0.6950 o          1 QEH      -0.815000
     11 O2B         -9.7970    -0.1130     1.3470 os         1 QEH      -0.576400
     12 O3B         -9.7340    -0.7750    -1.1310 o          1 QEH      -0.815000
     13 C2B        -11.1850     0.1040     1.4340 c3         1 QEH       0.216600
     14 C2          -0.7060    -0.6900    -0.6040 c3         1 QEH      -0.138400
     15 C3           0.6370    -1.4000    -0.5470 c3         1 QEH      -0.068400
     16 C4           1.7990    -0.4140    -0.5180 c3         1 QEH      -0.075400
     17 C5           3.1550    -1.1020    -0.4160 c3         1 QEH      -0.074400
     18 C6           4.3230    -0.1240    -0.3970 c3         1 QEH      -0.074400
     19 C7           5.6770    -0.8100    -0.2690 c3         1 QEH      -0.074400
     20 C8           6.8480     0.1650    -0.2510 c3         1 QEH      -0.074400
     21 C9           8.2000    -0.5230    -0.1110 c3         1 QEH      -0.074400
     22 C10          9.3730     0.4490    -0.0940 c3         1 QEH      -0.074400
     23 C11         10.7240    -0.2410     0.0520 c3         1 QEH      -0.074400
     24 C12         11.8990     0.7300     0.0690 c3         1 QEH      -0.074400
     25 C13         13.2480     0.0370     0.2130 c3         1 QEH      -0.074400
     26 C14         14.4240     1.0060     0.2280 c3         1 QEH      -0.074400
     27 C15         15.7730     0.3130     0.3680 c3         1 QEH      -0.074400
     28 C16         16.9500     1.2810     0.3810 c3         1 QEH      -0.075400
     29 C17         18.3010     0.5890     0.5130 c3         1 QEH      -0.075400
     30 C18         19.4660     1.5690     0.5240 c3         1 QEH      -0.088100
     31 C19        -11.5240     1.5750     1.5160 c3         1 QEH       0.085600
     32 C20        -12.1040     1.7980    -0.8760 c3         1 QEH       0.074900
     33 C21        -11.9320     3.7480     0.5570 c3         1 QEH       0.074900
     34 N1         -11.3610     2.4010     0.2660 n4         1 QEH      -0.487000
     35 C22         -9.9280     2.5750    -0.1160 c3         1 QEH       0.074900
     36 H181        19.4910     2.1590    -0.3940 hc         1 QEH       0.031367
     37 H182        19.3860     2.2640     1.3610 hc         1 QEH       0.031367
     38 H183        20.4240     1.0550     0.6120 hc         1 QEH       0.031367
     39 H171        18.3140    -0.0090     1.4300 hc         1 QEH       0.036700
     40 H172        18.4250    -0.1210    -0.3110 hc         1 QEH       0.036700
     41 H161        16.9380     1.8800    -0.5370 hc         1 QEH       0.036700
     42 H162        16.8250     1.9920     1.2060 hc         1 QEH       0.036700
     43 H151        15.7830    -0.2830     1.2880 hc         1 QEH       0.036700
     44 H152        15.9010    -0.4000    -0.4550 hc         1 QEH       0.036700
     45 H141        14.4150     1.6010    -0.6920 hc         1 QEH       0.036700
     46 H142        14.2960     1.7190     1.0500 hc         1 QEH       0.036700
     47 H131        13.2550    -0.5560     1.1350 hc         1 QEH       0.037700
     48 H132        13.3790    -0.6770    -0.6070 hc         1 QEH       0.037700
     49 H121        11.8910     1.3230    -0.8530 hc         1 QEH       0.036700
     50 H122        11.7670     1.4440     0.8890 hc         1 QEH       0.036700
     51 H111        10.7310    -0.8340     0.9740 hc         1 QEH       0.037700
     52 H112        10.8560    -0.9560    -0.7680 hc         1 QEH       0.037700
     53 H101         9.3660     1.0430    -1.0150 hc         1 QEH       0.036700
     54 H102         9.2400     1.1630     0.7260 hc         1 QEH       0.036700
     55 H91          8.2110    -1.1200     0.8080 hc         1 QEH       0.037700
     56 H92          8.3320    -1.2350    -0.9340 hc         1 QEH       0.037700
     57 H81          6.8370     0.7620    -1.1700 hc         1 QEH       0.036700
     58 H82          6.7160     0.8750     0.5720 hc         1 QEH       0.036700
     59 H71          5.6930    -1.4120     0.6470 hc         1 QEH       0.037700
     60 H72          5.8060    -1.5170    -1.0960 hc         1 QEH       0.037700
     61 H61          4.3060     0.4800    -1.3120 hc         1 QEH       0.036700
     62 H62          4.1930     0.5790     0.4320 hc         1 QEH       0.036700
     63 H51          3.1820    -1.7160     0.4900 hc         1 QEH       0.040200
     64 H52          3.2750    -1.7960    -1.2560 hc         1 QEH       0.040200
     65 H41          1.7710     0.2080    -1.4190 hc         1 QEH       0.036700
     66 H42          1.6770     0.2710     0.3270 hc         1 QEH       0.036700
     67 H31          0.6800    -2.0370     0.3420 hc         1 QEH       0.053700
     68 H32          0.7460    -2.0640    -1.4080 hc         1 QEH       0.053700
     69 H21         -0.7560    -0.0420    -1.4870 hc         1 QEH       0.070200
     70 H22         -0.8270    -0.0220     0.2540 hc         1 QEH       0.070200
     71 H1A1        -4.3850    -2.1360    -1.5130 h1         1 QEH       0.052700
     72 H1A2        -4.1980    -2.5680     0.1920 h1         1 QEH       0.052700
     73 H2A         -5.1640    -0.3830     0.8630 h1         1 QEH       0.091700
     74 H1          -5.7420     0.0120    -1.8620 ho         1 QEH       0.436000
     75 H3A1        -6.9190    -1.9660    -1.0560 h1         1 QEH       0.034200
     76 H3A2        -6.5410    -2.4440     0.5990 h1         1 QEH       0.034200
     77 H2B1       -11.7440    -0.3750     0.6250 h1         1 QEH       0.055200
     78 H2B2       -11.5660    -0.3280     2.3640 h1         1 QEH       0.055200
     79 H191       -12.5750     1.6580     1.7970 hx         1 QEH       0.080200
     80 H192       -10.9340     2.0630     2.2920 hx         1 QEH       0.080200
     81 H201       -13.1290     1.6010    -0.5730 hx         1 QEH       0.095478
     82 H202       -12.0980     2.5030    -1.7040 hx         1 QEH       0.095478
     83 H203       -11.6140     0.8780    -1.1800 hx         1 QEH       0.095478
     84 H211       -11.3980     4.1870     1.3960 hx         1 QEH       0.095478
     85 H212       -11.8210     4.3780    -0.3200 hx         1 QEH       0.095478
     86 H213       -12.9850     3.6460     0.8040 hx         1 QEH       0.095478
     87 H221        -9.5230     1.6380    -0.4760 hx         1 QEH       0.095478
     88 H222        -9.8760     3.3170    -0.9090 hx         1 QEH       0.095478
     89 H223        -9.3690     2.9260     0.7470 hx         1 QEH       0.095478
@<TRIPOS>BOND
     1     1     2 2   
     2     2     3 1   
     3     2    14 1   
     4     3     4 1   
     5     4     5 1   
     6     4    71 1   
     7     4    72 1   
     8     5     6 1   
     9     5     7 1   
    10     5    73 1   
    11     6    74 1   
    12     7     8 1   
    13     7    75 1   
    14     7    76 1   
    15     8     9 1   
    16     9    10 1   
    17     9    11 1   
    18     9    12 1   
    19    11    13 1   
    20    13    31 1   
    21    13    77 1   
    22    13    78 1   
    23    14    15 1   
    24    14    69 1   
    25    14    70 1   
    26    15    16 1   
    27    15    67 1   
    28    15    68 1   
    29    16    17 1   
    30    16    65 1   
    31    16    66 1   
    32    17    18 1   
    33    17    63 1   
    34    17    64 1   
    35    18    19 1   
    36    18    61 1   
    37    18    62 1   
    38    19    20 1   
    39    19    59 1   
    40    19    60 1   
    41    20    21 1   
    42    20    57 1   
    43    20    58 1   
    44    21    22 1   
    45    21    55 1   
    46    21    56 1   
    47    22    23 1   
    48    22    53 1   
    49    22    54 1   
    50    23    24 1   
    51    23    51 1   
    52    23    52 1   
    53    24    25 1   
    54    24    49 1   
    55    24    50 1   
    56    25    26 1   
    57    25    47 1   
    58    25    48 1   
    59    26    27 1   
    60    26    45 1   
    61    26    46 1   
    62    27    28 1   
    63    27    43 1   
    64    27    44 1   
    65    28    29 1   
    66    28    41 1   
    67    28    42 1   
    68    29    30 1   
    69    29    39 1   
    70    29    40 1   
    71    30    36 1   
    72    30    37 1   
    73    30    38 1   
    74    31    34 1   
    75    31    79 1   
    76    31    80 1   
    77    32    34 1   
    78    32    81 1   
    79    32    82 1   
    80    32    83 1   
    81    33    34 1   
    82    33    84 1   
    83    33    85 1   
    84    33    86 1   
    85    34    35 1   
    86    35    87 1   
    87    35    88 1   
    88    35    89 1   
@<TRIPOS>SUBSTRUCTURE
     1 QEH         1 TEMP              0 ****  ****    0 ROOT
