@<TRIPOS>MOLECULE
QEH
   89    88     1     0     0
SMALL
No Charge or Current Charge


@<TRIPOS>ATOM
      1 O1          -2.7360    -2.2840    -2.4040 o          1 QEH      -0.492000
      2 C1          -2.3680    -1.1420    -2.1630 c          1 QEH       0.591100
      3 O1A         -3.0610    -0.2500    -1.3880 os         1 QEH      -0.438100
      4 C1A         -4.3310    -0.6640    -0.8420 c3         1 QEH       0.125600
      5 C2A         -4.9270     0.5120    -0.0240 c3         1 QEH       0.156300
      6 O2A         -5.3250     1.5800    -0.9070 oh         1 QEH      -0.642000
      7 C3A         -6.1580     0.1070     0.8350 c3         1 QEH       0.192600
      8 O3A         -7.3270     0.0670    -0.0060 os         1 QEH      -0.586400
      9 P           -8.0270    -1.3370    -0.3760 p5         1 QEH       1.382800
     10 O1B         -7.0170    -2.3970    -0.6540 o          1 QEH      -0.815000
     11 O2B         -8.7970    -1.6160     1.0140 os         1 QEH      -0.576400
     12 O3B         -8.9880    -1.1830    -1.5040 o          1 QEH      -0.815000
     13 C2B        -10.0320    -0.9530     1.3360 c3         1 QEH       0.216600
     14 C2          -1.0370    -0.5610    -2.6480 c3         1 QEH      -0.138400
     15 C3           0.1190    -0.9260    -1.6870 c3         1 QEH      -0.068400
     16 C4           1.4810    -0.3510    -2.1350 c3         1 QEH      -0.075400
     17 C5           2.6350    -0.7150    -1.1770 c3         1 QEH      -0.074400
     18 C6           3.9970    -0.1400    -1.6250 c3         1 QEH      -0.074400
     19 C7           5.1520    -0.5040    -0.6670 c3         1 QEH      -0.074400
     20 C8           6.5130     0.0700    -1.1160 c3         1 QEH      -0.074400
     21 C9           7.6680    -0.2930    -0.1570 c3         1 QEH      -0.074400
     22 C10          9.0300     0.2800    -0.6070 c3         1 QEH      -0.074400
     23 C11         10.1850    -0.0830     0.3520 c3         1 QEH      -0.074400
     24 C12         11.5470     0.4890    -0.0990 c3         1 QEH      -0.074400
     25 C13         12.7020     0.1260     0.8600 c3         1 QEH      -0.074400
     26 C14         14.0640     0.6980     0.4100 c3         1 QEH      -0.074400
     27 C15         15.2190     0.3360     1.3690 c3         1 QEH      -0.074400
     28 C16         16.5810     0.9080     0.9180 c3         1 QEH      -0.075400
     29 C17         17.7360     0.5460     1.8770 c3         1 QEH      -0.075400
     30 C18         19.0950     1.1170     1.4280 c3         1 QEH      -0.088100
     31 C19         -9.7580     0.5100     1.7710 c3         1 QEH       0.085600
     32 C20        -12.0600     1.4530     1.3250 c3         1 QEH       0.074900
     33 C21        -10.1200     2.9800     1.7100 c3         1 QEH       0.074900
     34 N1         -10.5530     1.6430     1.0950 n4         1 QEH      -0.487000
     35 C22        -10.2590     1.6770    -0.4120 c3         1 QEH       0.074900
     36 H181        19.3700     0.7310     0.4390 hc         1 QEH       0.031367
     37 H182        19.0570     2.2120     1.3750 hc         1 QEH       0.031367
     38 H183        19.8810     0.8340     2.1380 hc         1 QEH       0.031367
     39 H171        17.5060     0.9210     2.8820 hc         1 QEH       0.036700
     40 H172        17.8160    -0.5460     1.9540 hc         1 QEH       0.036700
     41 H161        16.8150     0.5330    -0.0860 hc         1 QEH       0.036700
     42 H162        16.5050     2.0000     0.8430 hc         1 QEH       0.036700
     43 H151        14.9850     0.7110     2.3730 hc         1 QEH       0.036700
     44 H152        15.2950    -0.7560     1.4440 hc         1 QEH       0.036700
     45 H141        14.2980     0.3230    -0.5940 hc         1 QEH       0.036700
     46 H142        13.9880     1.7900     0.3340 hc         1 QEH       0.036700
     47 H131        12.4680     0.5020     1.8640 hc         1 QEH       0.037700
     48 H132        12.7770    -0.9660     0.9360 hc         1 QEH       0.037700
     49 H121        11.7810     0.1140    -1.1030 hc         1 QEH       0.036700
     50 H122        11.4720     1.5810    -0.1740 hc         1 QEH       0.036700
     51 H111         9.9510     0.2930     1.3560 hc         1 QEH       0.037700
     52 H112        10.2610    -1.1750     0.4280 hc         1 QEH       0.037700
     53 H101         9.2650    -0.0950    -1.6110 hc         1 QEH       0.036700
     54 H102         8.9540     1.3720    -0.6830 hc         1 QEH       0.036700
     55 H91          7.4340     0.0810     0.8470 hc         1 QEH       0.037700
     56 H92          7.7440    -1.3850    -0.0820 hc         1 QEH       0.037700
     57 H81          6.7480    -0.3040    -2.1210 hc         1 QEH       0.036700
     58 H82          6.4370     1.1620    -1.1900 hc         1 QEH       0.036700
     59 H71          4.9170    -0.1300     0.3380 hc         1 QEH       0.037700
     60 H72          5.2280    -1.5960    -0.5930 hc         1 QEH       0.037700
     61 H61          4.2320    -0.5130    -2.6300 hc         1 QEH       0.036700
     62 H62          3.9200     0.9520    -1.6990 hc         1 QEH       0.036700
     63 H51          2.4010    -0.3420    -0.1720 hc         1 QEH       0.040200
     64 H52          2.7120    -1.8070    -1.1040 hc         1 QEH       0.040200
     65 H41          1.7160    -0.7230    -3.1400 hc         1 QEH       0.036700
     66 H42          1.4040     0.7420    -2.2080 hc         1 QEH       0.036700
     67 H31         -0.1170    -0.5540    -0.6820 hc         1 QEH       0.053700
     68 H32          0.1950    -2.0180    -1.6130 hc         1 QEH       0.053700
     69 H21         -0.8140    -0.9570    -3.6450 hc         1 QEH       0.070200
     70 H22         -1.1130     0.5330    -2.6740 hc         1 QEH       0.070200
     71 H1A1        -5.0260    -0.9440    -1.6440 h1         1 QEH       0.052700
     72 H1A2        -4.1970    -1.5320    -0.1830 h1         1 QEH       0.052700
     73 H2A         -4.1450     0.8590     0.6660 h1         1 QEH       0.091700
     74 H1          -6.2930     1.4400    -1.0260 ho         1 QEH       0.436000
     75 H3A1        -5.9720    -0.8560     1.3290 h1         1 QEH       0.034200
     76 H3A2        -6.2990     0.8560     1.6250 h1         1 QEH       0.034200
     77 H2B1       -10.7140    -0.9620     0.4760 h1         1 QEH       0.055200
     78 H2B2       -10.5420    -1.4740     2.1560 h1         1 QEH       0.055200
     79 H191        -9.9470     0.5780     2.8440 hx         1 QEH       0.080200
     80 H192        -8.7020     0.7290     1.6210 hx         1 QEH       0.080200
     81 H201       -12.2610     1.4310     2.3980 hx         1 QEH       0.095478
     82 H202       -12.6010     2.2840     0.8680 hx         1 QEH       0.095478
     83 H203       -12.3820     0.5140     0.8720 hx         1 QEH       0.095478
     84 H211        -9.0500     3.1220     1.5450 hx         1 QEH       0.095478
     85 H212       -10.6760     3.7920     1.2370 hx         1 QEH       0.095478
     86 H213       -10.3280     2.9680     2.7820 hx         1 QEH       0.095478
     87 H221       -10.5930     0.7440    -0.8700 hx         1 QEH       0.095478
     88 H222       -10.7900     2.5170    -0.8650 hx         1 QEH       0.095478
     89 H223        -9.1850     1.7950    -0.5650 hx         1 QEH       0.095478
@<TRIPOS>BOND
     1     1     2 2   
     2     2     3 1   
     3     2    14 1   
     4     3     4 1   
     5     4     5 1   
     6     4    71 1   
     7     4    72 1   
     8     5     6 1   
     9     5     7 1   
    10     5    73 1   
    11     6    74 1   
    12     7     8 1   
    13     7    75 1   
    14     7    76 1   
    15     8     9 1   
    16     9    10 1   
    17     9    11 1   
    18     9    12 1   
    19    11    13 1   
    20    13    31 1   
    21    13    77 1   
    22    13    78 1   
    23    14    15 1   
    24    14    69 1   
    25    14    70 1   
    26    15    16 1   
    27    15    67 1   
    28    15    68 1   
    29    16    17 1   
    30    16    65 1   
    31    16    66 1   
    32    17    18 1   
    33    17    63 1   
    34    17    64 1   
    35    18    19 1   
    36    18    61 1   
    37    18    62 1   
    38    19    20 1   
    39    19    59 1   
    40    19    60 1   
    41    20    21 1   
    42    20    57 1   
    43    20    58 1   
    44    21    22 1   
    45    21    55 1   
    46    21    56 1   
    47    22    23 1   
    48    22    53 1   
    49    22    54 1   
    50    23    24 1   
    51    23    51 1   
    52    23    52 1   
    53    24    25 1   
    54    24    49 1   
    55    24    50 1   
    56    25    26 1   
    57    25    47 1   
    58    25    48 1   
    59    26    27 1   
    60    26    45 1   
    61    26    46 1   
    62    27    28 1   
    63    27    43 1   
    64    27    44 1   
    65    28    29 1   
    66    28    41 1   
    67    28    42 1   
    68    29    30 1   
    69    29    39 1   
    70    29    40 1   
    71    30    36 1   
    72    30    37 1   
    73    30    38 1   
    74    31    34 1   
    75    31    79 1   
    76    31    80 1   
    77    32    34 1   
    78    32    81 1   
    79    32    82 1   
    80    32    83 1   
    81    33    34 1   
    82    33    84 1   
    83    33    85 1   
    84    33    86 1   
    85    34    35 1   
    86    35    87 1   
    87    35    88 1   
    88    35    89 1   
@<TRIPOS>SUBSTRUCTURE
     1 QEH         1 TEMP              0 ****  ****    0 ROOT
