@<TRIPOS>MOLECULE
QEI
   35    37     1     0     0
SMALL
No Charge or Current Charge


@<TRIPOS>ATOM
      1 C1          -2.7290    -0.2750     0.2780 c5         1 QEI       0.194700
      2 C2          -3.5920    -0.3090    -1.0430 c5         1 QEI       0.166300
      3 C3          -2.7460     1.1950     0.6360 c2         1 QEI      -0.160200
      4 C4          -4.6010     0.8730    -0.7830 c5         1 QEI       0.163500
      5 C5          -3.7780     1.8190     0.0590 c2         1 QEI      -0.295200
      6 C9           2.0150    -0.3250     0.3680 cc         1 QEI      -0.285600
      7 C10          3.0940    -1.0520    -0.0260 cd         1 QEI       0.161400
      8 C11          2.0460     1.1400     0.4390 c          1 QEI       0.626600
      9 O1          -4.2710    -1.5500    -1.2720 oh         1 QEI      -0.643000
     10 O2          -5.7270     0.4530    -0.0120 oh         1 QEI      -0.643000
     11 N1          -1.3220    -0.6470    -0.0310 n7         1 QEI      -0.846400
     12 C7           0.9510    -1.2220     0.6670 cc         1 QEI      -0.067300
     13 C8           1.4160    -2.5010     0.4470 cd         1 QEI      -0.197000
     14 N2           2.7500    -2.3930     0.0170 na         1 QEI      -0.109000
     15 N3           4.3020    -0.4760    -0.3940 nd         1 QEI      -0.715100
     16 C12          4.2780     0.8350    -0.3220 cc         1 QEI       0.723800
     17 N5           5.3890     1.4610    -0.6630 nv         1 QEI      -1.036200
     18 N4           3.2510     1.6200     0.0600 ns         1 QEI      -0.457400
     19 H1          -3.1680    -0.9020     1.0690 h1         1 QEI       0.058700
     20 H2          -2.9630    -0.0570    -1.9090 h1         1 QEI       0.048700
     21 H3          -2.0140     1.6890     1.2770 ha         1 QEI       0.206000
     22 H4          -4.9260     1.3370    -1.7250 h1         1 QEI       0.036700
     23 H5          -3.9810     2.8860     0.1690 ha         1 QEI       0.189000
     24 HO1         -5.1350    -1.4280    -0.8140 ho         1 QEI       0.446000
     25 HO2         -6.1550     1.2720     0.3200 ho         1 QEI       0.438000
     26 HN1         -1.3290    -1.5400    -0.5350 hn         1 QEI       0.416000
     27 H8           0.9130    -3.4560     0.5580 h4         1 QEI       0.149000
     28 HN2          3.3680    -3.1580    -0.2270 hn         1 QEI       0.358000
     29 HN5          6.0620     0.8570    -1.1170 hn         1 QEI       0.490500
     30 HN5A         5.2910     2.3810    -1.0750 hn         1 QEI       0.490500
     31 HN4          3.3750     2.6160     0.0990 hn         1 QEI       0.320500
     32 C6          -0.4310    -0.8260     1.1320 c3         1 QEI       0.231100
     33 O3           1.1380     1.8740     0.7940 o          1 QEI      -0.540000
     34 H6          -0.3710     0.0870     1.7370 h1         1 QEI       0.040200
     35 H6A         -0.8180    -1.6190     1.7870 h1         1 QEI       0.040200
@<TRIPOS>BOND
     1     1     2 1   
     2     1     3 1   
     3     1    11 1   
     4     1    19 1   
     5     2     4 1   
     6     2     9 1   
     7     2    20 1   
     8     3     5 2   
     9     3    21 1   
    10     4     5 1   
    11     4    10 1   
    12     4    22 1   
    13     5    23 1   
    14     6     7 2   
    15     6     8 1   
    16     6    12 1   
    17     7    14 1   
    18     7    15 1   
    19     8    18 1   
    20     8    33 2   
    21     9    24 1   
    22    10    25 1   
    23    11    26 1   
    24    11    32 1   
    25    12    13 2   
    26    12    32 1   
    27    13    14 1   
    28    13    27 1   
    29    14    28 1   
    30    15    16 2   
    31    16    17 1   
    32    16    18 1   
    33    17    29 1   
    34    17    30 1   
    35    18    31 1   
    36    32    34 1   
    37    32    35 1   
@<TRIPOS>SUBSTRUCTURE
     1 QEI         1 TEMP              0 ****  ****    0 ROOT
