@<TRIPOS>MOLECULE
QEI
   35    37     1     0     0
SMALL
abcg2


@<TRIPOS>ATOM
      1 C1          -2.6590    -0.1990     0.3120 c5         1 QEI       0.194700
      2 C2          -3.5860    -0.1680    -0.9050 c5         1 QEI       0.166300
      3 C3          -2.7180     1.2410     0.7500 c2         1 QEI      -0.160200
      4 C4          -4.6150     0.9320    -0.5890 c5         1 QEI       0.163500
      5 C5          -3.7800     1.8660     0.2500 c2         1 QEI      -0.295200
      6 C9           1.8900    -0.3110     0.3550 cc         1 QEI      -0.285600
      7 C10          3.0390    -1.0220     0.0140 cd         1 QEI       0.161400
      8 C11          1.9400     1.1100     0.3050 c          1 QEI       0.626600
      9 O1          -4.1070    -1.4380    -1.1780 oh         1 QEI      -0.643000
     10 O2          -5.6910     0.3670     0.1340 oh         1 QEI      -0.643000
     11 N1          -1.3200    -0.6360    -0.0320 n7         1 QEI      -0.846400
     12 C7           0.8910    -1.2590     0.7440 cc         1 QEI      -0.067300
     13 C8           1.4730    -2.4860     0.6190 cd         1 QEI      -0.197000
     14 N2           2.7700    -2.3330     0.1770 na         1 QEI      -0.109000
     15 N3           4.2200    -0.5260    -0.4040 nd         1 QEI      -0.715100
     16 C12          4.2530     0.7760    -0.4670 cc         1 QEI       0.723800
     17 N5           5.3880     1.4090    -0.8270 nv         1 QEI      -1.036200
     18 N4           3.1890     1.5650    -0.1370 ns         1 QEI      -0.457400
     19 H1          -3.1100    -0.8340     1.0960 h1         1 QEI       0.058700
     20 H2          -2.9810     0.2070    -1.7430 h1         1 QEI       0.048700
     21 H3          -1.9760     1.6890     1.3990 ha         1 QEI       0.206000
     22 H4          -4.9840     1.4110    -1.5050 h1         1 QEI       0.036700
     23 H5          -4.0490     2.8970     0.4410 ha         1 QEI       0.189000
     24 HO1         -4.5290    -1.4190    -2.0420 ho         1 QEI       0.446000
     25 HO2         -6.3040     1.0750     0.3540 ho         1 QEI       0.438000
     26 HN1         -1.3830    -1.4640    -0.6140 hn         1 QEI       0.416000
     27 H8           1.0670    -3.4670     0.8060 h4         1 QEI       0.149000
     28 HN2          3.4200    -3.0840     0.0040 hn         1 QEI       0.358000
     29 HN5          6.1020     0.8380    -1.2480 hn         1 QEI       0.490500
     30 HN5A         5.3480     2.3570    -1.1630 hn         1 QEI       0.490500
     31 HN4          3.2990     2.5700    -0.1870 hn         1 QEI       0.320500
     32 C6          -0.5180    -0.9720     1.1360 c3         1 QEI       0.231100
     33 O3           1.0690     1.9160     0.5980 o          1 QEI      -0.540000
     34 H6          -0.5370    -0.1230     1.8210 h1         1 QEI       0.040200
     35 H6A         -0.9280    -1.8280     1.6920 h1         1 QEI       0.040200
@<TRIPOS>BOND
     1     1     2 1   
     2     1     3 1   
     3     1    11 1   
     4     1    19 1   
     5     2     4 1   
     6     2     9 1   
     7     2    20 1   
     8     3     5 2   
     9     3    21 1   
    10     4     5 1   
    11     4    10 1   
    12     4    22 1   
    13     5    23 1   
    14     6     7 2   
    15     6     8 1   
    16     6    12 1   
    17     7    14 1   
    18     7    15 1   
    19     8    18 1   
    20     8    33 2   
    21     9    24 1   
    22    10    25 1   
    23    11    26 1   
    24    11    32 1   
    25    12    13 2   
    26    12    32 1   
    27    13    14 1   
    28    13    27 1   
    29    14    28 1   
    30    15    16 2   
    31    16    17 1   
    32    16    18 1   
    33    17    29 1   
    34    17    30 1   
    35    18    31 1   
    36    32    34 1   
    37    32    35 1   
@<TRIPOS>SUBSTRUCTURE
     1 QEI         1 TEMP              0 ****  ****    0 ROOT
