@<TRIPOS>MOLECULE
QEJ
   15    15     1     0     0
SMALL
No Charge or Current Charge


@<TRIPOS>ATOM
      1 C1          -1.7480     0.1500     0.7550 c1         1 QEJ       0.314900
      2 N2          -2.9060     0.2290     0.8870 n1         1 QEJ      -0.461000
      3 CA          -0.2670     0.0380     0.6340 c5         1 QEJ       0.217600
      4 CB           0.3910     1.2570    -0.0550 c5         1 QEJ      -0.094400
      5 CG           1.8340     0.7270    -0.3150 c5         1 QEJ      -0.116400
      6 CD           1.6610    -0.8210    -0.3980 c5         1 QEJ       0.141800
      7 N            0.2040    -1.0570    -0.2550 n7         1 QEJ      -0.836400
      8 HA           0.1240    -0.0900     1.6540 h1         1 QEJ       0.069700
      9 HB2         -0.1130     1.5060    -0.9970 hc         1 QEJ       0.061200
     10 HB3          0.3790     2.1550     0.5730 hc         1 QEJ       0.061200
     11 HG2          2.2590     1.1440    -1.2350 hc         1 QEJ       0.053200
     12 HG3          2.5120     0.9960     0.5030 hc         1 QEJ       0.053200
     13 HD2          2.0440    -1.2330    -1.3430 h1         1 QEJ       0.061200
     14 HD3          2.2130    -1.3060     0.4210 h1         1 QEJ       0.061200
     15 H            0.0240    -1.9780     0.1680 hn         1 QEJ       0.414000
@<TRIPOS>BOND
     1     1     2 3   
     2     1     3 1   
     3     3     4 1   
     4     3     7 1   
     5     3     8 1   
     6     4     5 1   
     7     4     9 1   
     8     4    10 1   
     9     5     6 1   
    10     5    11 1   
    11     5    12 1   
    12     6     7 1   
    13     6    13 1   
    14     6    14 1   
    15     7    15 1   
@<TRIPOS>SUBSTRUCTURE
     1 QEJ         1 TEMP              0 ****  ****    0 ROOT
