@<TRIPOS>MOLECULE
QEJ
   15    15     1     0     0
SMALL
bcc


@<TRIPOS>ATOM
      1 C1          -1.6620     0.0380     0.2270 c1         1 QEJ       0.225700
      2 N2          -2.7340     0.0020    -0.1900 n1         1 QEJ      -0.371800
      3 CA          -0.2920     0.0860     0.7510 c5         1 QEJ       0.217600
      4 CB           0.5120     1.2580     0.1180 c5         1 QEJ      -0.094400
      5 CG           1.8370     0.6020    -0.2650 c5         1 QEJ      -0.116400
      6 CD           1.4070    -0.8280    -0.5780 c5         1 QEJ       0.141800
      7 N            0.4020    -1.1590     0.4310 n7         1 QEJ      -0.781200
      8 HA          -0.3750     0.2080     1.8330 h1         1 QEJ       0.069700
      9 HB2          0.0070     1.6390    -0.7710 hc         1 QEJ       0.061200
     10 HB3          0.6180     2.0850     0.8180 hc         1 QEJ       0.061200
     11 HG2          2.3210     1.1030    -1.1030 hc         1 QEJ       0.053200
     12 HG3          2.5300     0.6070     0.5790 hc         1 QEJ       0.053200
     13 HD2          0.9590    -0.8770    -1.5750 h1         1 QEJ       0.061200
     14 HD3          2.2200    -1.5510    -0.5470 h1         1 QEJ       0.061200
     15 H            0.8600    -1.4950     1.2670 hn         1 QEJ       0.358800
@<TRIPOS>BOND
     1     1     2 3   
     2     1     3 1   
     3     3     4 1   
     4     3     7 1   
     5     3     8 1   
     6     4     5 1   
     7     4     9 1   
     8     4    10 1   
     9     5     6 1   
    10     5    11 1   
    11     5    12 1   
    12     6     7 1   
    13     6    13 1   
    14     6    14 1   
    15     7    15 1   
@<TRIPOS>SUBSTRUCTURE
     1 QEJ         1 TEMP              0 ****  ****    0 ROOT
