@<TRIPOS>MOLECULE
QEK
   52    55     1     0     0
SMALL
bcc


@<TRIPOS>ATOM
      1 OAB         41.6340   -23.1820    18.5660 o          1 QEK      -0.795300
      2 CAW         40.7490   -22.4750    19.1250 c          1 QEK       0.924200
      3 OAF         40.8950   -21.8250    20.1640 o          1 QEK      -0.795300
      4 CBD         39.3910   -22.4090    18.4330 ca         1 QEK      -0.160600
      5 CAQ         38.4640   -21.4570    18.8450 ca         1 QEK      -0.084000
      6 CAY         37.2180   -21.3180    18.2420 ca         1 QEK      -0.113300
      7 CAA         36.2260   -20.3070    18.7390 c3         1 QEK      -0.033800
      8 CAJ         36.9140   -22.1560    17.1730 ca         1 QEK      -0.140000
      9 CAM         37.8160   -23.1120    16.7360 ca         1 QEK      -0.150000
     10 CBC         39.0430   -23.2590    17.3710 ca         1 QEK       0.096600
     11 NAU         39.9530   -24.2680    16.9570 nu         1 QEK      -0.665500
     12 SBH         39.5300   -25.8310    17.3100 sy         1 QEK       1.260200
     13 OAD         40.7320   -26.6240    17.1130 o          1 QEK      -0.636800
     14 OAE         38.3190   -26.1750    16.5840 o          1 QEK      -0.636800
     15 CBB         39.1330   -25.7750    19.0380 ca         1 QEK      -0.282500
     16 CAP         40.1640   -25.8150    19.9620 ca         1 QEK      -0.001000
     17 CAZ         39.8720   -25.5630    21.2910 ca         1 QEK       0.031400
     18 CL1         41.1760   -25.6320    22.4320 cl         1 QEK      -0.122400
     19 CAL         37.8310   -25.5060    19.4310 ca         1 QEK      -0.028000
     20 CAK         37.5730   -25.2450    20.7650 ca         1 QEK      -0.143000
     21 CBA         38.5850   -25.2430    21.7200 ca         1 QEK      -0.052300
     22 CAR         38.2790   -24.9090    23.1630 c3         1 QEK       0.152300
     23 NAT         37.1210   -24.0720    23.3130 ns         1 QEK      -0.570900
     24 CAX         37.1530   -22.7720    22.9620 c          1 QEK       0.600800
     25 OAC         38.1720   -22.2060    22.5960 o          1 QEK      -0.536100
     26 CBE         35.8660   -22.0550    23.0340 cc         1 QEK       0.312900
     27 CBG         35.6220   -20.6780    22.7660 ca         1 QEK      -0.183900
     28 CAO         36.3840   -19.5570    22.4040 ca         1 QEK      -0.024000
     29 CAI         35.7310   -18.3590    22.2300 ca         1 QEK      -0.175000
     30 CAH         34.3360   -18.2480    22.4070 ca         1 QEK      -0.091000
     31 CAN         33.5640   -19.3290    22.7660 ca         1 QEK      -0.162000
     32 CBF         34.2350   -20.5430    22.9430 ca         1 QEK      -0.055200
     33 NAV         33.7810   -21.7750    23.2880 na         1 QEK      -0.003100
     34 NAS         34.7470   -22.6730    23.3390 nd         1 QEK      -0.526100
     35 H2          38.7290   -20.8020    19.6650 ha         1 QEK       0.152000
     36 H3          35.6680   -20.6940    19.5950 hc         1 QEK       0.028367
     37 H4          36.7170   -19.3920    19.0690 hc         1 QEK       0.028367
     38 H5          35.5020   -20.0460    17.9680 hc         1 QEK       0.028367
     39 H6          35.9610   -22.0580    16.6670 ha         1 QEK       0.108000
     40 H7          37.5650   -23.7430    15.8950 ha         1 QEK       0.141000
     41 H8          40.8680   -24.0300    17.4240 hn         1 QEK       0.508800
     42 H9          41.1810   -26.0270    19.6620 ha         1 QEK       0.176000
     43 H10         37.0230   -25.4820    18.7130 ha         1 QEK       0.152000
     44 H11         36.5590   -25.0160    21.0650 ha         1 QEK       0.125000
     45 H12         38.1050   -25.8310    23.7210 h1         1 QEK       0.065700
     46 H13         39.1410   -24.4260    23.6240 h1         1 QEK       0.065700
     47 H14         36.2400   -24.4880    23.5730 hn         1 QEK       0.323500
     48 H15         37.4520   -19.6340    22.2620 ha         1 QEK       0.175000
     49 H16         36.2940   -17.4790    21.9490 ha         1 QEK       0.135000
     50 H17         33.8630   -17.2860    22.2580 ha         1 QEK       0.124000
     51 H18         32.4940   -19.2440    22.9040 ha         1 QEK       0.130000
     52 H19         32.8310   -22.0510    23.4850 hn         1 QEK       0.321700
@<TRIPOS>BOND
     1     1     2 1   
     2     2     3 1   
     3     2     4 1   
     4     4     5 ar  
     5     4    10 ar  
     6     5     6 ar  
     7     5    35 1   
     8     6     7 1   
     9     6     8 ar  
    10     7    36 1   
    11     7    37 1   
    12     7    38 1   
    13     8     9 ar  
    14     8    39 1   
    15     9    10 ar  
    16     9    40 1   
    17    10    11 1   
    18    11    12 1   
    19    11    41 1   
    20    12    13 2   
    21    12    14 2   
    22    12    15 1   
    23    15    16 ar  
    24    15    19 ar  
    25    16    17 ar  
    26    16    42 1   
    27    17    18 1   
    28    17    21 ar  
    29    19    20 ar  
    30    19    43 1   
    31    20    21 ar  
    32    20    44 1   
    33    21    22 1   
    34    22    23 1   
    35    22    45 1   
    36    22    46 1   
    37    23    24 1   
    38    23    47 1   
    39    24    25 2   
    40    24    26 1   
    41    26    27 1   
    42    26    34 2   
    43    27    28 ar  
    44    27    32 ar  
    45    28    29 ar  
    46    28    48 1   
    47    29    30 ar  
    48    29    49 1   
    49    30    31 ar  
    50    30    50 1   
    51    31    32 ar  
    52    31    51 1   
    53    32    33 1   
    54    33    34 1   
    55    33    52 1   
@<TRIPOS>SUBSTRUCTURE
     1 QEK         1 TEMP              0 ****  ****    0 ROOT
