@<TRIPOS>MOLECULE
QEK
   52    55     1     0     0
SMALL
No Charge or Current Charge


@<TRIPOS>ATOM
      1 OAB         41.4300   -22.3800    18.6260 o          1 QEK      -0.690000
      2 CAW         40.5080   -21.6100    18.8640 c          1 QEK       0.713600
      3 OAF         40.6750   -20.5450    19.4410 o          1 QEK      -0.690000
      4 CBD         39.1000   -21.9710    18.4090 ca         1 QEK      -0.160600
      5 CAQ         38.0100   -21.1850    18.8640 ca         1 QEK      -0.066000
      6 CAY         36.6870   -21.4730    18.4800 ca         1 QEK      -0.113300
      7 CAA         35.5300   -20.6260    18.9860 c3         1 QEK      -0.033800
      8 CAJ         36.4390   -22.5540    17.6220 ca         1 QEK      -0.122000
      9 CAM         37.5020   -23.3430    17.1630 ca         1 QEK      -0.132000
     10 CBC         38.8270   -23.0730    17.5550 ca         1 QEK       0.235000
     11 NAU         39.8460   -23.9110    17.1180 nu         1 QEK      -0.859100
     12 SBH         39.9450   -25.5480    17.4270 sy         1 QEK       1.118600
     13 OAD         41.3870   -25.7850    17.3720 o          1 QEK      -0.566000
     14 OAE         39.0050   -26.1660    16.4880 o          1 QEK      -0.566000
     15 CBB         39.3620   -25.6900    19.1150 ca         1 QEK      -0.282500
     16 CAP         40.2380   -25.4220    20.1850 ca         1 QEK       0.017000
     17 CAZ         39.7580   -25.3900    21.5060 ca         1 QEK       0.123000
     18 Cl1         40.9050   -25.0210    22.7970 cl         1 QEK      -0.214000
     19 CAL         38.0050   -25.9550    19.3730 ca         1 QEK      -0.010000
     20 CAK         37.5240   -25.9200    20.6900 ca         1 QEK      -0.125000
     21 CBA         38.3850   -25.6180    21.7660 ca         1 QEK      -0.052300
     22 CAR         37.7800   -25.4720    23.1620 c3         1 QEK       0.152300
     23 NAT         36.8070   -24.3760    23.1970 ns         1 QEK      -0.503900
     24 CAX         37.1150   -23.0420    22.9820 c          1 QEK       0.533800
     25 OAC         38.2770   -22.6670    22.8760 o          1 QEK      -0.536100
     26 CBE         35.9050   -22.1490    22.8860 cc         1 QEK       0.312900
     27 CBG         35.9640   -20.7220    22.6180 ca         1 QEK      -0.183900
     28 CAO         37.0320   -19.8380    22.3880 ca         1 QEK      -0.006000
     29 CAI         36.7160   -18.4840    22.1340 ca         1 QEK      -0.157000
     30 CAH         35.3680   -18.0500    22.1130 ca         1 QEK      -0.073000
     31 CAN         34.3210   -18.9680    22.3450 ca         1 QEK      -0.144000
     32 CBF         34.6710   -20.3000    22.5950 ca         1 QEK      -0.055200
     33 NAV         33.8740   -21.3970    22.8360 na         1 QEK      -0.053400
     34 NAS         34.6240   -22.5660    23.0180 nd         1 QEK      -0.526100
     35 H2          38.1880   -20.3430    19.5300 ha         1 QEK       0.134000
     36 H3          34.9420   -21.1760    19.7300 hc         1 QEK       0.028367
     37 H4          35.8780   -19.6980    19.4550 hc         1 QEK       0.028367
     38 H5          34.8560   -20.3490    18.1670 hc         1 QEK       0.028367
     39 H6          35.4220   -22.7850    17.3130 ha         1 QEK       0.090000
     40 H7          37.2910   -24.1750    16.4970 ha         1 QEK       0.123000
     41 H8          40.7480   -23.6040    17.4860 hn         1 QEK       0.564000
     42 H9          41.2880   -25.2030    20.0000 ha         1 QEK       0.158000
     43 H10         37.3110   -26.1480    18.5560 ha         1 QEK       0.134000
     44 H11         36.4660   -26.0930    20.8730 ha         1 QEK       0.107000
     45 H12         37.2680   -26.4060    23.4310 h1         1 QEK       0.065700
     46 H13         38.5470   -25.2880    23.9230 h1         1 QEK       0.065700
     47 H14         35.8200   -24.5990    23.2790 hn         1 QEK       0.323500
     48 H15         38.0670   -20.1710    22.3980 ha         1 QEK       0.157000
     49 H16         37.5160   -17.7710    21.9510 ha         1 QEK       0.117000
     50 H17         35.1380   -17.0060    21.9140 ha         1 QEK       0.106000
     51 H18         33.2810   -18.6500    22.3260 ha         1 QEK       0.112000
     52 H19         32.8560   -21.4020    22.8830 hn         1 QEK       0.372000
@<TRIPOS>BOND
     1     1     2 1   
     2     2     3 1   
     3     2     4 1   
     4     4     5 ar  
     5     4    10 ar  
     6     5     6 ar  
     7     5    35 1   
     8     6     7 1   
     9     6     8 ar  
    10     7    36 1   
    11     7    37 1   
    12     7    38 1   
    13     8     9 ar  
    14     8    39 1   
    15     9    10 ar  
    16     9    40 1   
    17    10    11 1   
    18    11    12 1   
    19    11    41 1   
    20    12    13 2   
    21    12    14 2   
    22    12    15 1   
    23    15    16 ar  
    24    15    19 ar  
    25    16    17 ar  
    26    16    42 1   
    27    17    18 1   
    28    17    21 ar  
    29    19    20 ar  
    30    19    43 1   
    31    20    21 ar  
    32    20    44 1   
    33    21    22 1   
    34    22    23 1   
    35    22    45 1   
    36    22    46 1   
    37    23    24 1   
    38    23    47 1   
    39    24    25 2   
    40    24    26 1   
    41    26    27 1   
    42    26    34 2   
    43    27    28 ar  
    44    27    32 ar  
    45    28    29 ar  
    46    28    48 1   
    47    29    30 ar  
    48    29    49 1   
    49    30    31 ar  
    50    30    50 1   
    51    31    32 ar  
    52    31    51 1   
    53    32    33 1   
    54    33    34 1   
    55    33    52 1   
@<TRIPOS>SUBSTRUCTURE
     1 QEK         1 TEMP              0 ****  ****    0 ROOT
