@<TRIPOS>MOLECULE
QEL
   51    53     1     0     0
SMALL
No Charge or Current Charge


@<TRIPOS>ATOM
      1 C1          -7.4020     1.2500    -0.7440 ca         1 QEL      -0.112000
      2 N1           0.1330    -0.1020     0.1880 n3         1 QEL      -0.765600
      3 O1           2.2230    -0.6500     1.7810 oh         1 QEL      -0.665000
      4 C2           6.0420    -0.5520    -1.2540 ca         1 QEL      -0.179500
      5 C3           6.1220     0.7860     0.7710 ca         1 QEL      -0.179500
      6 C4          -5.2870    -0.2850     0.3180 ca         1 QEL      -0.077300
      7 C5          -5.8390    -0.6070    -0.9370 ca         1 QEL      -0.108500
      8 C6          -6.8930     0.1580    -1.4670 ca         1 QEL      -0.109000
      9 C7          -4.1400    -1.1140     0.8860 c3         1 QEL      -0.027100
     10 C8          -2.7750    -0.8650     0.1780 c6         1 QEL      -0.058700
     11 C9          -2.2980     0.6010     0.3100 c6         1 QEL      -0.076400
     12 C01         -6.8560     1.5760     0.5090 ca         1 QEL      -0.109000
     13 C02         -5.8020     0.8110     1.0390 ca         1 QEL      -0.108500
     14 C10         -0.9200     0.8140    -0.3610 c6         1 QEL       0.177300
     15 C11         -0.3140    -1.5270     0.0320 c6         1 QEL       0.177300
     16 C12         -1.6700    -1.7980     0.7250 c6         1 QEL      -0.076400
     17 C13          1.5200     0.1370    -0.3740 c3         1 QEL       0.155500
     18 C14          2.5810    -0.7250     0.4010 c3         1 QEL       0.228600
     19 C15          4.0530    -0.3660     0.1540 ca         1 QEL      -0.121300
     20 C16          4.6980    -0.8710    -0.9940 ca         1 QEL      -0.057500
     21 C18          6.7530     0.2740    -0.3730 ca         1 QEL       0.138100
     22 C19          4.7780     0.4680     1.0360 ca         1 QEL      -0.057500
     23 C24          1.9250     1.6410    -0.3800 c3         1 QEL      -0.094100
     24 H1          -8.2180     1.8420    -1.1530 ha         1 QEL       0.112000
     25 HO2          8.3870     1.1600     0.0820 ho         1 QEL       0.463000
     26 H3           6.6640     1.4300     1.4600 ha         1 QEL       0.119500
     27 H5          -5.4510    -1.4510    -1.5040 ha         1 QEL       0.110500
     28 H6          -7.3150    -0.0960    -2.4370 ha         1 QEL       0.111500
     29 H7          -4.0360    -0.9210     1.9610 hc         1 QEL       0.048200
     30 H7A         -4.4010    -2.1770     0.8070 hc         1 QEL       0.048200
     31 H8          -2.9250    -1.0920    -0.8880 hc         1 QEL       0.046700
     32 H9          -3.0280     1.2820    -0.1480 hc         1 QEL       0.049200
     33 H9A         -2.2320     0.8810     1.3700 hc         1 QEL       0.049200
     34 H01         -7.2490     2.4210     1.0700 ha         1 QEL       0.111500
     35 H02         -5.3840     1.0730     2.0080 ha         1 QEL       0.110500
     36 H10         -0.6540     1.8660    -0.1950 h1         1 QEL       0.033200
     37 H10A        -1.0210     0.6700    -1.4480 h1         1 QEL       0.033200
     38 H11         -0.4020    -1.7790    -1.0360 h1         1 QEL       0.033200
     39 H11A         0.4140    -2.2260     0.4630 h1         1 QEL       0.033200
     40 H12         -1.5590    -1.6580     1.8090 hc         1 QEL       0.049200
     41 H12A        -1.9530    -2.8490     0.5710 hc         1 QEL       0.049200
     42 H13          1.5410    -0.1920    -1.4220 h1         1 QEL       0.035700
     43 H16          4.1560    -1.5110    -1.6870 ha         1 QEL       0.119500
     44 H19          4.3010     0.8780     1.9230 ha         1 QEL       0.119500
     45 H24          1.8650     2.0690     0.6270 hc         1 QEL       0.044033
     46 H24A         2.9440     1.7810    -0.7550 hc         1 QEL       0.044033
     47 H24B         1.2840     2.2260    -1.0490 hc         1 QEL       0.044033
     48 H26          1.2620    -0.4150     1.6990 ho         1 QEL       0.473000
     49 H27          2.4590    -1.7640     0.0690 h1         1 QEL       0.032700
     50 H2           6.5310    -0.9460    -2.1410 ha         1 QEL       0.119500
     51 O2           8.0550     0.5780    -0.6350 oh         1 QEL      -0.535100
@<TRIPOS>BOND
     1     1     8 ar  
     2     1    12 ar  
     3     1    24 1   
     4     2    14 1   
     5     2    15 1   
     6     2    17 1   
     7     3    18 1   
     8     3    48 1   
     9     4    20 ar  
    10     4    21 ar  
    11     4    50 1   
    12     5    21 ar  
    13     5    22 ar  
    14     5    26 1   
    15     6     7 ar  
    16     6     9 1   
    17     6    13 ar  
    18     7     8 ar  
    19     7    27 1   
    20     8    28 1   
    21     9    10 1   
    22     9    29 1   
    23     9    30 1   
    24    10    11 1   
    25    10    16 1   
    26    10    31 1   
    27    11    14 1   
    28    11    32 1   
    29    11    33 1   
    30    12    13 ar  
    31    12    34 1   
    32    13    35 1   
    33    14    36 1   
    34    14    37 1   
    35    15    16 1   
    36    15    38 1   
    37    15    39 1   
    38    16    40 1   
    39    16    41 1   
    40    17    18 1   
    41    17    23 1   
    42    17    42 1   
    43    18    19 1   
    44    18    49 1   
    45    19    20 ar  
    46    19    22 ar  
    47    20    43 1   
    48    21    51 1   
    49    22    44 1   
    50    23    45 1   
    51    23    46 1   
    52    23    47 1   
    53    25    51 1   
@<TRIPOS>SUBSTRUCTURE
     1 QEL         1 TEMP              0 ****  ****    0 ROOT
