@<TRIPOS>MOLECULE
QEL
   51    53     1     0     0
SMALL
bcc


@<TRIPOS>ATOM
      1 C1          -7.2320     1.3930    -0.3190 ca         1 QEL      -0.130000
      2 N1           0.1290    -0.2110    -0.1050 n3         1 QEL      -0.765600
      3 O1           1.9610     0.0420     1.8380 oh         1 QEL      -0.602800
      4 C2           5.9230    -0.7700    -0.7550 ca         1 QEL      -0.197500
      5 C3           5.8840     1.0360     0.8280 ca         1 QEL      -0.197500
      6 C4          -5.1310    -0.3260     0.3860 ca         1 QEL      -0.077300
      7 C5          -5.7910    -0.4660    -0.8350 ca         1 QEL      -0.126500
      8 C6          -6.8310     0.3840    -1.1860 ca         1 QEL      -0.127000
      9 C7          -3.9850    -1.2310     0.7430 c3         1 QEL      -0.027100
     10 C8          -2.7040    -0.9280    -0.0400 c6         1 QEL      -0.058700
     11 C9          -2.1960     0.4900     0.1920 c6         1 QEL      -0.076400
     12 C01         -6.5860     1.5410     0.9000 ca         1 QEL      -0.127000
     13 C02         -5.5440     0.6890     1.2460 ca         1 QEL      -0.126500
     14 C10         -0.8810     0.7470    -0.5280 c6         1 QEL       0.177300
     15 C11         -0.3040    -1.5690    -0.4080 c6         1 QEL       0.177300
     16 C12         -1.5960    -1.9140     0.3130 c6         1 QEL      -0.076400
     17 C13          1.5150     0.0240    -0.5280 c3         1 QEL       0.155500
     18 C14          2.4050    -0.5130     0.6290 c3         1 QEL       0.205400
     19 C15          3.8680    -0.2360     0.4180 ca         1 QEL      -0.121300
     20 C16          4.5850    -1.0110    -0.4910 ca         1 QEL      -0.075500
     21 C18          6.5840     0.2620    -0.0910 ca         1 QEL       0.138100
     22 C19          4.5400     0.7870     1.0750 ca         1 QEL      -0.075500
     23 C24          1.8240     1.4800    -0.8460 c3         1 QEL      -0.094100
     24 H1          -8.0450     2.0540    -0.5900 ha         1 QEL       0.130000
     25 HO2          8.2350     1.1930     0.1490 ho         1 QEL       0.424000
     26 H3           6.3850     1.8400     1.3570 ha         1 QEL       0.137500
     27 H5          -5.4900    -1.2510    -1.5190 ha         1 QEL       0.128500
     28 H6          -7.3300     0.2570    -2.1380 ha         1 QEL       0.129500
     29 H7          -3.7740    -1.1500     1.8140 hc         1 QEL       0.048200
     30 H7A         -4.2690    -2.2710     0.5580 hc         1 QEL       0.048200
     31 H8          -2.9200    -1.0390    -1.1110 hc         1 QEL       0.046700
     32 H9          -2.9320     1.2230    -0.1450 hc         1 QEL       0.049200
     33 H9A         -2.0500     0.6530     1.2660 hc         1 QEL       0.049200
     34 H01         -6.8940     2.3200     1.5870 ha         1 QEL       0.129500
     35 H02         -5.0470     0.8110     2.2020 ha         1 QEL       0.128500
     36 H10         -0.5490     1.7560    -0.2930 h1         1 QEL       0.033200
     37 H10A        -1.0490     0.7070    -1.6180 h1         1 QEL       0.033200
     38 H11         -0.4460    -1.6940    -1.4950 h1         1 QEL       0.033200
     39 H11A         0.4750    -2.2740    -0.1150 h1         1 QEL       0.033200
     40 H12         -1.4200    -1.8990     1.3940 hc         1 QEL       0.049200
     41 H12A        -1.8940    -2.9330     0.0510 hc         1 QEL       0.049200
     42 H13          1.7480    -0.5610    -1.4320 h1         1 QEL       0.035700
     43 H16          4.0900    -1.8260    -1.0080 ha         1 QEL       0.137500
     44 H19          4.0200     1.4090     1.7910 ha         1 QEL       0.137500
     45 H24          1.6670     2.1370     0.0100 hc         1 QEL       0.044033
     46 H24A         2.8660     1.5750    -1.1460 hc         1 QEL       0.044033
     47 H24B         1.2190     1.8450    -1.6740 hc         1 QEL       0.044033
     48 H26          0.9950     0.0850     1.7220 ho         1 QEL       0.434000
     49 H27          2.2860    -1.6080     0.6510 h1         1 QEL       0.032700
     50 H2           6.4610    -1.3840    -1.4670 ha         1 QEL       0.137500
     51 O2           7.8900     0.4590    -0.3710 oh         1 QEL      -0.496100
@<TRIPOS>BOND
     1     1     8 ar  
     2     1    12 ar  
     3     1    24 1   
     4     2    14 1   
     5     2    15 1   
     6     2    17 1   
     7     3    18 1   
     8     3    48 1   
     9     4    20 ar  
    10     4    21 ar  
    11     4    50 1   
    12     5    21 ar  
    13     5    22 ar  
    14     5    26 1   
    15     6     7 ar  
    16     6     9 1   
    17     6    13 ar  
    18     7     8 ar  
    19     7    27 1   
    20     8    28 1   
    21     9    10 1   
    22     9    29 1   
    23     9    30 1   
    24    10    11 1   
    25    10    16 1   
    26    10    31 1   
    27    11    14 1   
    28    11    32 1   
    29    11    33 1   
    30    12    13 ar  
    31    12    34 1   
    32    13    35 1   
    33    14    36 1   
    34    14    37 1   
    35    15    16 1   
    36    15    38 1   
    37    15    39 1   
    38    16    40 1   
    39    16    41 1   
    40    17    18 1   
    41    17    23 1   
    42    17    42 1   
    43    18    19 1   
    44    18    49 1   
    45    19    20 ar  
    46    19    22 ar  
    47    20    43 1   
    48    21    51 1   
    49    22    44 1   
    50    23    45 1   
    51    23    46 1   
    52    23    47 1   
    53    25    51 1   
@<TRIPOS>SUBSTRUCTURE
     1 QEL         1 TEMP              0 ****  ****    0 ROOT
