@<TRIPOS>MOLECULE
QEM
   54    56     1     0     0
SMALL
abcg2


@<TRIPOS>ATOM
      1 C           -4.2690     0.9670    -1.0030 ca         1 QEM      -0.063000
      2 N            0.4830    -1.5730    -0.0210 n3         1 QEM      -0.728600
      3 O           -7.1240     2.7350     0.4440 oh         1 QEM      -0.533100
      4 C01          5.3040     1.5720     1.1230 ca         1 QEM      -0.108500
      5 O01         -3.6900    -2.5970    -0.1870 oh         1 QEM      -0.654000
      6 C02          5.3950     0.3770     0.4140 ca         1 QEM      -0.075300
      7 C03          6.1830     0.3500    -0.7360 ca         1 QEM      -0.108500
      8 C04          6.8610     1.4830    -1.1640 ca         1 QEM      -0.109500
      9 C05          6.7620     2.6690    -0.4470 ca         1 QEM      -0.113000
     10 C06          5.9790     2.7100     0.6990 ca         1 QEM      -0.109500
     11 C07          4.6450    -0.8490     0.8540 c3         1 QEM      -0.028100
     12 C08          3.3660    -1.1080     0.0500 c6         1 QEM      -0.057700
     13 C09          2.3420     0.0120     0.1940 c6         1 QEM      -0.073900
     14 C10          1.0370    -0.3260    -0.5100 c6         1 QEM       0.172300
     15 C11          1.4070    -2.6680    -0.2460 c6         1 QEM       0.172300
     16 C12          2.7240    -2.4270     0.4730 c6         1 QEM      -0.073900
     17 C13         -0.8350    -1.8600    -0.5460 c3         1 QEM       0.176800
     18 C14         -1.9180    -0.9020    -0.0440 c3         1 QEM      -0.092700
     19 C15         -3.2900    -1.3150    -0.6130 c3         1 QEM       0.223600
     20 C16         -4.3380    -0.2550    -0.3390 ca         1 QEM      -0.145300
     21 C18         -5.3750    -0.4370     0.5710 ca         1 QEM      -0.063000
     22 C19         -6.2980     0.5670     0.8260 ca         1 QEM      -0.174000
     23 C20         -6.2060     1.7860     0.1620 ca         1 QEM       0.138100
     24 C21         -5.1830     1.9790    -0.7620 ca         1 QEM      -0.174000
     25 H           -3.4850     1.1380    -1.7320 ha         1 QEM       0.112500
     26 HO          -6.9520     3.5290    -0.0750 ho         1 QEM       0.464000
     27 HO01        -3.5900    -2.6600     0.7680 ho         1 QEM       0.444000
     28 H03          6.2720    -0.5720    -1.3000 ha         1 QEM       0.110000
     29 H04          7.4720     1.4400    -2.0570 ha         1 QEM       0.111000
     30 H05          7.2940     3.5520    -0.7760 ha         1 QEM       0.111000
     31 H06          5.8950     3.6280     1.2670 ha         1 QEM       0.111000
     32 H07          5.2950    -1.7250     0.7640 hc         1 QEM       0.047700
     33 H07A         4.3850    -0.7630     1.9130 hc         1 QEM       0.047700
     34 H08          3.6390    -1.1880    -1.0110 hc         1 QEM       0.046700
     35 H09          2.1370     0.1830     1.2560 hc         1 QEM       0.047200
     36 H09A         2.7320     0.9500    -0.2100 hc         1 QEM       0.047200
     37 H10          1.2060    -0.3650    -1.6030 h1         1 QEM       0.029200
     38 H10A         0.3230     0.4820    -0.3380 h1         1 QEM       0.029200
     39 H11          0.9540    -3.5910     0.1220 h1         1 QEM       0.029200
     40 H11A         1.6030    -2.8220    -1.3240 h1         1 QEM       0.029200
     41 H12          3.4050    -3.2600     0.2770 hc         1 QEM       0.047200
     42 H12A         2.5420    -2.4120     1.5530 hc         1 QEM       0.047200
     43 H13         -0.8470    -1.8620    -1.6520 h1         1 QEM       0.034700
     44 H13A        -1.0980    -2.8750    -0.2350 h1         1 QEM       0.034700
     45 H14         -1.7220     0.0950    -0.4540 hc         1 QEM       0.052700
     46 H15         -3.1760    -1.3960    -1.7000 h1         1 QEM       0.073700
     47 H18         -5.4820    -1.3750     1.1000 ha         1 QEM       0.112500
     48 H19         -7.0960     0.4040     1.5410 ha         1 QEM       0.120000
     49 H21         -5.1020     2.9180    -1.3000 ha         1 QEM       0.120000
     50 C17         -1.9180    -0.7900     1.4760 c3         1 QEM      -0.086100
     51 H01          4.6950     1.6140     2.0190 ha         1 QEM       0.110000
     52 H17         -0.9540    -0.4320     1.8310 hc         1 QEM       0.039033
     53 H17A        -2.6840    -0.0980     1.8270 hc         1 QEM       0.039033
     54 H17B        -2.0870    -1.7540     1.9630 hc         1 QEM       0.039033
@<TRIPOS>BOND
     1     1    20 ar  
     2     1    24 ar  
     3     1    25 1   
     4     2    14 1   
     5     2    15 1   
     6     2    17 1   
     7     3    23 1   
     8     3    26 1   
     9     4     6 ar  
    10     4    10 ar  
    11     4    51 1   
    12     5    19 1   
    13     5    27 1   
    14     6     7 ar  
    15     6    11 1   
    16     7     8 ar  
    17     7    28 1   
    18     8     9 ar  
    19     8    29 1   
    20     9    10 ar  
    21     9    30 1   
    22    10    31 1   
    23    11    12 1   
    24    11    32 1   
    25    11    33 1   
    26    12    13 1   
    27    12    16 1   
    28    12    34 1   
    29    13    14 1   
    30    13    35 1   
    31    13    36 1   
    32    14    37 1   
    33    14    38 1   
    34    15    16 1   
    35    15    39 1   
    36    15    40 1   
    37    16    41 1   
    38    16    42 1   
    39    17    18 1   
    40    17    43 1   
    41    17    44 1   
    42    18    19 1   
    43    18    45 1   
    44    18    50 1   
    45    19    20 1   
    46    19    46 1   
    47    20    21 ar  
    48    21    22 ar  
    49    21    47 1   
    50    22    23 ar  
    51    22    48 1   
    52    23    24 ar  
    53    24    49 1   
    54    50    52 1   
    55    50    53 1   
    56    50    54 1   
@<TRIPOS>SUBSTRUCTURE
     1 QEM         1 TEMP              0 ****  ****    0 ROOT
