@<TRIPOS>MOLECULE
QEM
   54    56     1     0     0
SMALL
No Charge or Current Charge


@<TRIPOS>ATOM
      1 C           -4.4520     0.9260    -1.2470 ca         1 QEM      -0.063000
      2 N            0.5070    -1.6210     0.1160 n3         1 QEM      -0.728600
      3 O           -7.2790     2.7930     0.1860 oh         1 QEM      -0.533100
      4 C01          5.5840     1.4700     1.2170 ca         1 QEM      -0.108500
      5 O01         -3.8030    -2.5680    -0.2620 oh         1 QEM      -0.654000
      6 C02          5.5250     0.3720     0.3360 ca         1 QEM      -0.075300
      7 C03          6.1120     0.4790    -0.9400 ca         1 QEM      -0.108500
      8 C04          6.7500     1.6690    -1.3320 ca         1 QEM      -0.109500
      9 C05          6.8050     2.7600    -0.4490 ca         1 QEM      -0.113000
     10 C06          6.2220     2.6600     0.8260 ca         1 QEM      -0.109500
     11 C07          4.8280    -0.9190     0.7540 c3         1 QEM      -0.028100
     12 C08          3.4530    -1.1430     0.0590 c6         1 QEM      -0.057700
     13 C09          2.4340    -0.0200     0.3870 c6         1 QEM      -0.073900
     14 C10          1.0600    -0.2910    -0.2740 c6         1 QEM       0.172300
     15 C11          1.4570    -2.7150    -0.2300 c6         1 QEM       0.172300
     16 C12          2.8380    -2.5130     0.4410 c6         1 QEM      -0.073900
     17 C13         -0.8530    -1.8880    -0.4250 c3         1 QEM       0.176800
     18 C14         -1.9850    -0.9450     0.0750 c3         1 QEM      -0.092700
     19 C15         -3.3320    -1.2670    -0.6370 c3         1 QEM       0.223600
     20 C16         -4.4050    -0.1980    -0.3950 ca         1 QEM      -0.145300
     21 C18         -5.3440    -0.2950     0.6590 ca         1 QEM      -0.063000
     22 C19         -6.3050     0.7130     0.8480 ca         1 QEM      -0.174000
     23 C20         -6.3420     1.8230    -0.0070 ca         1 QEM       0.138100
     24 C21         -5.4160     1.9310    -1.0550 ca         1 QEM      -0.174000
     25 H           -3.7360     1.0220    -2.0620 ha         1 QEM       0.112500
     26 HO          -7.1550     3.4850    -0.4990 ho         1 QEM       0.464000
     27 HO01        -3.8770    -2.5640     0.7140 ho         1 QEM       0.444000
     28 H03          6.0730    -0.3620    -1.6300 ha         1 QEM       0.110000
     29 H04          7.2010     1.7440    -2.3190 ha         1 QEM       0.111000
     30 H05          7.2990     3.6810    -0.7510 ha         1 QEM       0.111000
     31 H06          6.2640     3.5050     1.5100 ha         1 QEM       0.111000
     32 H07          5.4900    -1.7640     0.5280 hc         1 QEM       0.047700
     33 H07A         4.6970    -0.9370     1.8430 hc         1 QEM       0.047700
     34 H08          3.6410    -1.1390    -1.0240 hc         1 QEM       0.046700
     35 H09          2.3030     0.0620     1.4750 hc         1 QEM       0.047200
     36 H09A         2.8130     0.9510     0.0430 hc         1 QEM       0.047200
     37 H10          1.1710    -0.2320    -1.3680 h1         1 QEM       0.029200
     38 H10A         0.3820     0.5190     0.0260 h1         1 QEM       0.029200
     39 H11          1.0530    -3.6850     0.0920 h1         1 QEM       0.029200
     40 H11A         1.5930    -2.7680    -1.3210 h1         1 QEM       0.029200
     41 H12          3.5120    -3.3270     0.1400 hc         1 QEM       0.047200
     42 H12A         2.7250    -2.5860     1.5310 hc         1 QEM       0.047200
     43 H13         -0.8210    -1.8400    -1.5230 h1         1 QEM       0.034700
     44 H13A        -1.1410    -2.9160    -0.1660 h1         1 QEM       0.034700
     45 H14         -1.7270     0.0720    -0.2390 hc         1 QEM       0.052700
     46 H15         -3.1290    -1.2700    -1.7180 h1         1 QEM       0.073700
     47 H18         -5.3320    -1.1430     1.3390 ha         1 QEM       0.112500
     48 H19         -7.0220     0.6320     1.6610 ha         1 QEM       0.120000
     49 H21         -5.4340     2.7890    -1.7220 ha         1 QEM       0.120000
     50 C17         -2.0890    -0.9240     1.6260 c3         1 QEM      -0.086100
     51 H01          5.1330     1.4040     2.2050 ha         1 QEM       0.110000
     52 H17         -1.1410    -0.6000     2.0730 hc         1 QEM       0.039033
     53 H17A        -2.8610    -0.2230     1.9620 hc         1 QEM       0.039033
     54 H17B        -2.3240    -1.9180     2.0230 hc         1 QEM       0.039033
@<TRIPOS>BOND
     1     1    20 ar  
     2     1    24 ar  
     3     1    25 1   
     4     2    14 1   
     5     2    15 1   
     6     2    17 1   
     7     3    23 1   
     8     3    26 1   
     9     4     6 ar  
    10     4    10 ar  
    11     4    51 1   
    12     5    19 1   
    13     5    27 1   
    14     6     7 ar  
    15     6    11 1   
    16     7     8 ar  
    17     7    28 1   
    18     8     9 ar  
    19     8    29 1   
    20     9    10 ar  
    21     9    30 1   
    22    10    31 1   
    23    11    12 1   
    24    11    32 1   
    25    11    33 1   
    26    12    13 1   
    27    12    16 1   
    28    12    34 1   
    29    13    14 1   
    30    13    35 1   
    31    13    36 1   
    32    14    37 1   
    33    14    38 1   
    34    15    16 1   
    35    15    39 1   
    36    15    40 1   
    37    16    41 1   
    38    16    42 1   
    39    17    18 1   
    40    17    43 1   
    41    17    44 1   
    42    18    19 1   
    43    18    45 1   
    44    18    50 1   
    45    19    20 1   
    46    19    46 1   
    47    20    21 ar  
    48    21    22 ar  
    49    21    47 1   
    50    22    23 ar  
    51    22    48 1   
    52    23    24 ar  
    53    24    49 1   
    54    50    52 1   
    55    50    53 1   
    56    50    54 1   
@<TRIPOS>SUBSTRUCTURE
     1 QEM         1 TEMP              0 ****  ****    0 ROOT
