@<TRIPOS>MOLECULE
QEN
   35    37     1     0     0
SMALL
bcc


@<TRIPOS>ATOM
      1 CAO          3.0250     7.9960   -26.0840 ca         1 QEN       0.017000
      2 CAW          1.7140     7.4860   -25.9830 ca         1 QEN      -0.062000
      3 CAL          1.2260     6.9350   -24.7740 ca         1 QEN      -0.084000
      4 CAG         -0.0480     6.4450   -24.7010 ca         1 QEN      -0.150000
      5 CAF         -0.8920     6.4850   -25.8310 ca         1 QEN      -0.116000
      6 CAK         -0.4470     7.0100   -27.0130 ca         1 QEN      -0.135000
      7 CAV          0.8660     7.5230   -27.1200 ca         1 QEN       0.003000
      8 CAM          1.3600     8.0660   -28.3280 ca         1 QEN      -0.149000
      9 CAJ          2.6350     8.5510   -28.4140 ca         1 QEN      -0.038000
     10 CAS          3.4640     8.5090   -27.2750 ca         1 QEN      -0.292500
     11 SAX          5.1100     9.1690   -27.3550 sy         1 QEN       1.277200
     12 OAB          5.9860     8.3470   -26.5360 o          1 QEN      -0.633800
     13 OAC          5.4350     9.3760   -28.7560 o          1 QEN      -0.633800
     14 NAP          5.0330    10.6280   -26.5850 nu         1 QEN      -0.698500
     15 CAT          4.0130    11.5400   -26.9190 ca         1 QEN       0.149600
     16 CAI          3.8530    12.0080   -28.2220 ca         1 QEN      -0.177000
     17 CAH          2.8420    12.9010   -28.5320 ca         1 QEN      -0.103000
     18 CAR          1.9970    13.3430   -27.5260 ca         1 QEN      -0.047900
     19 BR1          0.6070    14.5550   -27.9450 br         1 QEN      -0.151100
     20 CAN          2.1610    12.9110   -26.2230 ca         1 QEN      -0.058000
     21 CAU          3.1650    12.0030   -25.8990 ca         1 QEN      -0.181600
     22 CAQ          3.3070    11.5680   -24.4410 c          1 QEN       0.933200
     23 OAD          4.2830    10.8150   -24.1690 o          1 QEN      -0.791800
     24 OAA          2.4710    11.9890   -23.6390 o          1 QEN      -0.791800
     25 H1           3.6660     7.9630   -25.2120 ha         1 QEN       0.166000
     26 H2           1.8790     6.9060   -23.9090 ha         1 QEN       0.141000
     27 H3          -0.4150     6.0240   -23.7740 ha         1 QEN       0.124000
     28 H4          -1.8990     6.0940   -25.7590 ha         1 QEN       0.119000
     29 H5          -1.0940     7.0390   -27.8810 ha         1 QEN       0.124000
     30 H6           0.7140     8.0920   -29.1970 ha         1 QEN       0.123000
     31 H7           3.0020     8.9600   -29.3450 ha         1 QEN       0.151000
     32 H8           4.9960    10.5170   -25.5300 hn         1 QEN       0.519800
     33 H9           4.5250    11.6890   -29.0040 ha         1 QEN       0.150000
     34 H10          2.7320    13.2490   -29.5510 ha         1 QEN       0.128000
     35 H11          1.5090    13.2610   -25.4340 ha         1 QEN       0.166000
@<TRIPOS>BOND
     1     1     2 ar  
     2     1    10 ar  
     3     1    25 1   
     4     2     3 ar  
     5     2     7 ar  
     6     3     4 ar  
     7     3    26 1   
     8     4     5 ar  
     9     4    27 1   
    10     5     6 ar  
    11     5    28 1   
    12     6     7 ar  
    13     6    29 1   
    14     7     8 ar  
    15     8     9 ar  
    16     8    30 1   
    17     9    10 ar  
    18     9    31 1   
    19    10    11 1   
    20    11    12 2   
    21    11    13 2   
    22    11    14 1   
    23    14    15 1   
    24    14    32 1   
    25    15    16 ar  
    26    15    21 ar  
    27    16    17 ar  
    28    16    33 1   
    29    17    18 ar  
    30    17    34 1   
    31    18    19 1   
    32    18    20 ar  
    33    20    21 ar  
    34    20    35 1   
    35    21    22 1   
    36    22    23 1   
    37    22    24 1   
@<TRIPOS>SUBSTRUCTURE
     1 QEN         1 TEMP              0 ****  ****    0 ROOT
