@<TRIPOS>MOLECULE
QEN
   35    37     1     0     0
SMALL
No Charge or Current Charge


@<TRIPOS>ATOM
      1 CAO          2.9940     7.9440   -26.0680 ca         1 QEN       0.035000
      2 CAW          1.6800     7.4380   -26.0210 ca         1 QEN      -0.062000
      3 CAL          1.1570     6.9250   -24.8180 ca         1 QEN      -0.066000
      4 CAG         -0.1550     6.4230   -24.7770 ca         1 QEN      -0.132000
      5 CAF         -0.9500     6.4330   -25.9360 ca         1 QEN      -0.098000
      6 CAK         -0.4340     6.9460   -27.1380 ca         1 QEN      -0.117000
      7 CAV          0.8800     7.4490   -27.1850 ca         1 QEN       0.003000
      8 CAM          1.3980     7.9660   -28.3860 ca         1 QEN      -0.131000
      9 CAJ          2.7080     8.4720   -28.4330 ca         1 QEN      -0.020000
     10 CAS          3.5100     8.4570   -27.2740 ca         1 QEN      -0.292500
     11 SAX          5.1710     9.1330   -27.3110 sy         1 QEN       1.135600
     12 OAB          6.0010     8.4640   -26.3090 o          1 QEN      -0.563000
     13 OAC          5.6230     9.3530   -28.6880 o          1 QEN      -0.563000
     14 NAP          5.0180    10.6590   -26.6610 nu         1 QEN      -0.892100
     15 CAT          3.9930    11.5600   -26.8990 ca         1 QEN       0.288000
     16 CAI          3.6730    11.9120   -28.2240 ca         1 QEN      -0.159000
     17 CAH          2.6340    12.8130   -28.5000 ca         1 QEN      -0.085000
     18 CAR          1.9090    13.3750   -27.4430 ca         1 QEN      -0.047900
     19 Br1          0.4890    14.6020   -27.8090 br         1 QEN      -0.151100
     20 CAN          2.2240    13.0440   -26.1160 ca         1 QEN      -0.040000
     21 CAU          3.2710    12.1360   -25.8200 ca         1 QEN      -0.181600
     22 CAQ          3.5710    11.8130   -24.3670 c          1 QEN       0.722600
     23 OAD          4.2800    10.8510   -24.1020 o          1 QEN      -0.686500
     24 OAA          3.0900    12.5350   -23.5060 o          1 QEN      -0.686500
     25 H1           3.6050     7.9400   -25.1660 ha         1 QEN       0.148000
     26 H2           1.7650     6.9130   -23.9150 ha         1 QEN       0.123000
     27 H3          -0.5560     6.0270   -23.8470 ha         1 QEN       0.106000
     28 H4          -1.9660     6.0450   -25.9020 ha         1 QEN       0.101000
     29 H5          -1.0550     6.9520   -28.0310 ha         1 QEN       0.106000
     30 H6           0.7860     7.9810   -29.2850 ha         1 QEN       0.105000
     31 H7           3.0920     8.8760   -29.3690 ha         1 QEN       0.133000
     32 H8           5.1000    10.4500   -25.6650 hn         1 QEN       0.575000
     33 H9           4.2360    11.4930   -29.0520 ha         1 QEN       0.132000
     34 H10          2.3950    13.0740   -29.5280 ha         1 QEN       0.110000
     35 H11          1.6450    13.4980   -25.3140 ha         1 QEN       0.148000
@<TRIPOS>BOND
     1     1     2 ar  
     2     1    10 ar  
     3     1    25 1   
     4     2     3 ar  
     5     2     7 ar  
     6     3     4 ar  
     7     3    26 1   
     8     4     5 ar  
     9     4    27 1   
    10     5     6 ar  
    11     5    28 1   
    12     6     7 ar  
    13     6    29 1   
    14     7     8 ar  
    15     8     9 ar  
    16     8    30 1   
    17     9    10 ar  
    18     9    31 1   
    19    10    11 1   
    20    11    12 2   
    21    11    13 2   
    22    11    14 1   
    23    14    15 1   
    24    14    32 1   
    25    15    16 ar  
    26    15    21 ar  
    27    16    17 ar  
    28    16    33 1   
    29    17    18 ar  
    30    17    34 1   
    31    18    19 1   
    32    18    20 ar  
    33    20    21 ar  
    34    20    35 1   
    35    21    22 1   
    36    22    23 1   
    37    22    24 1   
@<TRIPOS>SUBSTRUCTURE
     1 QEN         1 TEMP              0 ****  ****    0 ROOT
