@<TRIPOS>MOLECULE
QEO
   52    55     1     0     0
SMALL
No Charge or Current Charge


@<TRIPOS>ATOM
      1 O5          74.7300    12.7900    66.2020 oh         1 QEO      -0.727000
      2 C5          74.2530    11.4710    66.5320 c3         1 QEO       0.149600
      3 C4          72.6960    11.3770    66.5370 c5         1 QEO       0.131300
      4 C3          71.9840    11.9210    65.2460 c5         1 QEO       0.149300
      5 O3          70.7900    11.1890    64.9250 oh         1 QEO      -0.689000
      6 C2          71.6240    13.3690    65.6890 c5         1 QEO       0.140300
      7 O2          70.5910    13.9360    64.8530 oh         1 QEO      -0.681000
      8 O4          72.1590    12.1340    67.6580 os         1 QEO      -0.444000
      9 C1          71.1810    13.0790    67.1570 c5         1 QEO       0.273300
     10 N2          71.0780    14.2300    68.0620 na         1 QEO       0.009000
     11 C10         70.0260    14.4580    68.9430 cc         1 QEO       0.183400
     12 N3          68.9200    13.6730    69.1880 nc         1 QEO      -0.722100
     13 C12         68.1180    14.1880    70.0830 cd         1 QEO       0.746800
     14 N5          67.0410    13.4720    70.3450 nv         1 QEO      -1.068200
     15 N4          68.2630    15.3460    70.7460 ns         1 QEO      -0.461400
     16 C11         69.3180    16.1760    70.5630 c          1 QEO       0.628600
     17 O6          69.4380    17.2210    71.1830 o          1 QEO      -0.549000
     18 C9          70.2600    15.6510    69.5580 cd         1 QEO      -0.288600
     19 C8          71.9690    15.3110    68.1210 cc         1 QEO      -0.185000
     20 C7          71.4720    16.1930    69.0530 cd         1 QEO      -0.077300
     21 C6          72.1040    17.5050    69.4510 c3         1 QEO       0.233100
     22 N1          71.5460    18.6170    68.6580 n7         1 QEO      -0.858400
     23 C17         72.0260    19.9760    69.0120 c5         1 QEO       0.193700
     24 C16         71.3220    20.4850    70.3370 c5         1 QEO       0.142300
     25 O1          72.0430    21.5790    70.9230 oh         1 QEO      -0.667000
     26 C15         71.4220    20.8580    67.9440 c2         1 QEO      -0.227200
     27 C13         70.2920    21.4340    68.3640 c2         1 QEO      -0.195200
     28 C14         69.9420    20.9960    69.7670 c5         1 QEO       0.152500
     29 O7          69.4060    22.0870    70.5260 oh         1 QEO      -0.663000
     30 H1          75.7120    12.7730    66.2950 ho         1 QEO       0.511000
     31 H2          74.6360    10.7440    65.8040 h1         1 QEO       0.032200
     32 H3          74.6230    11.1670    67.5200 h1         1 QEO       0.032200
     33 H4          72.4390    10.3200    66.6880 h1         1 QEO       0.067700
     34 H5          72.6670    11.9290    64.3850 h1         1 QEO       0.064700
     35 H6          70.1920    11.8690    64.5290 ho         1 QEO       0.500000
     36 H7          72.5190    14.0050    65.6710 h1         1 QEO       0.066700
     37 H8          70.5330    14.8980    65.0660 ho         1 QEO       0.513000
     38 H9          70.1920    12.6040    67.1510 h2         1 QEO       0.115700
     39 H10         66.9010    12.7210    69.6810 hn         1 QEO       0.508000
     40 H11         66.2030    13.9810    70.5960 hn         1 QEO       0.508000
     41 H12         67.5850    15.6240    71.4340 hn         1 QEO       0.318500
     42 H13         72.8690    15.3600    67.5200 h4         1 QEO       0.161000
     43 H14         71.9420    17.6630    70.5250 h1         1 QEO       0.040200
     44 H15         73.1900    17.4350    69.2960 h1         1 QEO       0.040200
     45 H16         71.7710    18.4310    67.6760 hn         1 QEO       0.411000
     46 H18         73.1240    20.0340    69.0520 h1         1 QEO       0.053700
     47 H19         71.1830    19.6810    71.0710 h1         1 QEO       0.072700
     48 H20         71.3880    22.3170    70.8990 ho         1 QEO       0.459000
     49 H21         71.8640    21.0290    66.9620 ha         1 QEO       0.186000
     50 H23         69.6930    22.1190    67.7620 ha         1 QEO       0.194000
     51 H25         69.2220    20.1650    69.7270 h1         1 QEO       0.068700
     52 H26         68.9240    21.6940    71.2880 ho         1 QEO       0.448000
@<TRIPOS>BOND
     1     1     2 1   
     2     1    30 1   
     3     2     3 1   
     4     2    31 1   
     5     2    32 1   
     6     3     4 1   
     7     3     8 1   
     8     3    33 1   
     9     4     5 1   
    10     4     6 1   
    11     4    34 1   
    12     5    35 1   
    13     6     7 1   
    14     6     9 1   
    15     6    36 1   
    16     7    37 1   
    17     8     9 1   
    18     9    10 1   
    19     9    38 1   
    20    10    11 1   
    21    10    19 1   
    22    11    12 1   
    23    11    18 2   
    24    12    13 2   
    25    13    14 1   
    26    13    15 1   
    27    14    39 1   
    28    14    40 1   
    29    15    16 1   
    30    15    41 1   
    31    16    17 2   
    32    16    18 1   
    33    18    20 1   
    34    19    20 2   
    35    19    42 1   
    36    20    21 1   
    37    21    22 1   
    38    21    43 1   
    39    21    44 1   
    40    22    23 1   
    41    22    45 1   
    42    23    24 1   
    43    23    26 1   
    44    23    46 1   
    45    24    25 1   
    46    24    28 1   
    47    24    47 1   
    48    25    48 1   
    49    26    27 2   
    50    26    49 1   
    51    27    28 1   
    52    27    50 1   
    53    28    29 1   
    54    28    51 1   
    55    29    52 1   
@<TRIPOS>SUBSTRUCTURE
     1 QEO         1 TEMP              0 ****  ****    0 ROOT
