@<TRIPOS>MOLECULE
QEO
   52    55     1     0     0
SMALL
abcg2


@<TRIPOS>ATOM
      1 O5          74.3040    13.5430    66.1260 oh         1 QEO      -0.727000
      2 C5          74.2860    12.1670    66.4180 c3         1 QEO       0.149600
      3 C4          72.8620    11.6680    66.5380 c5         1 QEO       0.131300
      4 C3          71.9570    11.9640    65.3310 c5         1 QEO       0.149300
      5 O3          70.9740    10.9730    65.1530 oh         1 QEO      -0.689000
      6 C2          71.2570    13.2370    65.7820 c5         1 QEO       0.140300
      7 O2          70.0650    13.4710    65.0970 oh         1 QEO      -0.681000
      8 O4          72.2190    12.2500    67.6710 os         1 QEO      -0.444000
      9 C1          71.0730    12.9590    67.2800 c5         1 QEO       0.273300
     10 N2          70.9420    14.1410    68.0820 na         1 QEO       0.009000
     11 C10         69.8880    14.4460    68.8820 cc         1 QEO       0.183400
     12 N3          68.8080    13.6630    69.0420 nc         1 QEO      -0.722100
     13 C12         67.9200    14.1380    69.8740 cd         1 QEO       0.746800
     14 N5          66.8100    13.4380    70.1380 nv         1 QEO      -1.068200
     15 N4          68.0730    15.3330    70.5160 ns         1 QEO      -0.461400
     16 C11         69.1730    16.1910    70.3890 c          1 QEO       0.628600
     17 O6          69.2010    17.2300    71.0330 o          1 QEO      -0.549000
     18 C9          70.1420    15.6770    69.4810 cd         1 QEO      -0.288600
     19 C8          71.8770    15.1610    68.1740 cc         1 QEO      -0.185000
     20 C7          71.4240    16.1230    69.0200 cd         1 QEO      -0.077300
     21 C6          72.1240    17.4000    69.3390 c3         1 QEO       0.233100
     22 N1          71.4810    18.5200    68.6680 n7         1 QEO      -0.858400
     23 C17         72.0640    19.8120    69.0110 c5         1 QEO       0.193700
     24 C16         71.4310    20.3520    70.3030 c5         1 QEO       0.142300
     25 O1          72.3470    21.2090    70.9350 oh         1 QEO      -0.667000
     26 C15         71.6420    20.8390    67.9920 c2         1 QEO      -0.227200
     27 C13         70.6220    21.5690    68.4240 c2         1 QEO      -0.195200
     28 C14         70.2030    21.1550    69.8060 c5         1 QEO       0.152500
     29 O7          69.9230    22.2780    70.6140 oh         1 QEO      -0.663000
     30 H1          75.2180    13.8410    66.1040 ho         1 QEO       0.511000
     31 H2          74.7750    11.5770    65.6310 h1         1 QEO       0.032200
     32 H3          74.8120    11.9440    67.3540 h1         1 QEO       0.032200
     33 H4          72.9290    10.5830    66.6880 h1         1 QEO       0.067700
     34 H5          72.5430    12.1160    64.4160 h1         1 QEO       0.064700
     35 H6          71.4120    10.1550    64.8970 ho         1 QEO       0.500000
     36 H7          71.9620    14.0660    65.6570 h1         1 QEO       0.066700
     37 H8          69.7820    14.3720    65.2830 ho         1 QEO       0.513000
     38 H9          70.1620    12.3720    67.4390 h2         1 QEO       0.115700
     39 H10         66.6500    12.5770    69.6440 hn         1 QEO       0.508000
     40 H11         66.0660    13.7960    70.7100 hn         1 QEO       0.508000
     41 H12         67.3480    15.6420    71.1530 hn         1 QEO       0.318500
     42 H13         72.8090    15.1060    67.6330 h4         1 QEO       0.161000
     43 H14         72.0950    17.5800    70.4160 h1         1 QEO       0.040200
     44 H15         73.1870    17.3050    69.0720 h1         1 QEO       0.040200
     45 H16         71.5430    18.3720    67.6680 hn         1 QEO       0.411000
     46 H18         73.1590    19.7530    69.1080 h1         1 QEO       0.053700
     47 H19         71.1270    19.5380    70.9750 h1         1 QEO       0.072700
     48 H20         71.8380    21.9440    71.3020 ho         1 QEO       0.459000
     49 H21         72.0970    20.9080    67.0120 ha         1 QEO       0.186000
     50 H23         70.1020    22.3310    67.8570 ha         1 QEO       0.194000
     51 H25         69.3270    20.4970    69.7480 h1         1 QEO       0.068700
     52 H26         69.3520    22.0040    71.3390 ho         1 QEO       0.448000
@<TRIPOS>BOND
     1     1     2 1   
     2     1    30 1   
     3     2     3 1   
     4     2    31 1   
     5     2    32 1   
     6     3     4 1   
     7     3     8 1   
     8     3    33 1   
     9     4     5 1   
    10     4     6 1   
    11     4    34 1   
    12     5    35 1   
    13     6     7 1   
    14     6     9 1   
    15     6    36 1   
    16     7    37 1   
    17     8     9 1   
    18     9    10 1   
    19     9    38 1   
    20    10    11 1   
    21    10    19 1   
    22    11    12 1   
    23    11    18 2   
    24    12    13 2   
    25    13    14 1   
    26    13    15 1   
    27    14    39 1   
    28    14    40 1   
    29    15    16 1   
    30    15    41 1   
    31    16    17 2   
    32    16    18 1   
    33    18    20 1   
    34    19    20 2   
    35    19    42 1   
    36    20    21 1   
    37    21    22 1   
    38    21    43 1   
    39    21    44 1   
    40    22    23 1   
    41    22    45 1   
    42    23    24 1   
    43    23    26 1   
    44    23    46 1   
    45    24    25 1   
    46    24    28 1   
    47    24    47 1   
    48    25    48 1   
    49    26    27 2   
    50    26    49 1   
    51    27    28 1   
    52    27    50 1   
    53    28    29 1   
    54    28    51 1   
    55    29    52 1   
@<TRIPOS>SUBSTRUCTURE
     1 QEO         1 TEMP              0 ****  ****    0 ROOT
