@<TRIPOS>MOLECULE
QEP
   79    82     1     0     0
SMALL
bcc


@<TRIPOS>ATOM
      1 C01          3.6460    -4.7810    -1.1340 c3         1 QEP      -0.110433
      2 C02          2.7580    -4.2570    -0.0120 c3         1 QEP       0.202800
      3 C03          1.3220    -4.0330    -0.4730 c3         1 QEP      -0.110433
      4 C04          2.7730    -5.2390     1.1530 c3         1 QEP      -0.110433
      5 C06          3.3750    -1.9010    -0.1120 c          1 QEP       0.772100
      6 C09          3.6160     0.5100     0.3330 c3         1 QEP       0.156700
      7 C10          2.2400     0.8830    -0.2290 c3         1 QEP      -0.013300
      8 C12         -0.4990     0.6580    -0.2010 c3         1 QEP      -0.000300
      9 C13         -1.7500    -0.1200     0.1980 c3         1 QEP       0.165500
     10 C15         -2.5500    -2.4460     0.1690 ca         1 QEP       0.180600
     11 C16         -3.6710    -2.1810     0.9650 ca         1 QEP      -0.198000
     12 C17         -4.6390    -3.1570     1.1630 ca         1 QEP      -0.087500
     13 C18         -4.5210    -4.4120     0.5850 ca         1 QEP      -0.176000
     14 C19         -3.4070    -4.6810    -0.2040 ca         1 QEP      -0.087500
     15 C20         -2.4370    -3.7160    -0.4130 ca         1 QEP      -0.198000
     16 C21         -2.9230     0.4310    -0.6310 c          1 QEP       0.632100
     17 C24         -4.8290     1.9860    -0.5900 c3         1 QEP       0.150300
     18 C25         -6.1180     1.3540    -0.1350 ca         1 QEP      -0.238600
     19 C26         -7.0780     2.0950     0.5410 ca         1 QEP       0.406200
     20 C28         -8.4730     0.3120     0.7570 ca         1 QEP       0.404200
     21 C29         -7.5830    -0.5240     0.0940 ca         1 QEP      -0.248300
     22 C30         -6.3890     0.0070    -0.3600 ca         1 QEP      -0.070000
     23 C31          4.7510     0.9240    -0.6210 c3         1 QEP      -0.047100
     24 C32          4.6650     2.3570    -1.0660 ca         1 QEP      -0.071300
     25 C33          5.0180     3.4330    -0.1990 ca         1 QEP      -0.029000
     26 C34          5.5330     3.2270     1.1050 ca         1 QEP      -0.124000
     27 C35          5.8630     4.2820     1.9130 ca         1 QEP      -0.124000
     28 C36          5.6930     5.6060     1.4630 ca         1 QEP      -0.126000
     29 C37          5.2050     5.8420     0.2080 ca         1 QEP      -0.115000
     30 C38          4.8590     4.7720    -0.6510 ca         1 QEP      -0.038000
     31 C39          4.3640     5.0150    -1.9540 ca         1 QEP      -0.117000
     32 C40          4.0470     3.9710    -2.7760 ca         1 QEP      -0.125000
     33 C41          4.2010     2.6450    -2.3260 ca         1 QEP      -0.122000
     34 N08          3.7220    -0.8860     0.7130 ns         1 QEP      -0.569900
     35 N14         -1.5490    -1.5210    -0.0290 nu         1 QEP      -0.741600
     36 N23         -3.6710     1.3510    -0.0020 ns         1 QEP      -0.569900
     37 N27         -8.2310     1.5970     0.9780 nb         1 QEP      -0.667000
     38 O05          3.3040    -3.0440     0.5690 os         1 QEP      -0.451900
     39 O07          3.1820    -1.7770    -1.3040 o          1 QEP      -0.602000
     40 O22         -3.1110     0.0590    -1.7760 o          1 QEP      -0.589100
     41 H1           4.6730    -4.9130    -0.7870 hc         1 QEP       0.049811
     42 H2           3.2800    -5.7580    -1.4550 hc         1 QEP       0.049811
     43 H3           3.6550    -4.1250    -2.0010 hc         1 QEP       0.049811
     44 H4           0.8800    -4.9910    -0.7500 hc         1 QEP       0.049811
     45 H5           0.7190    -3.6080     0.3320 hc         1 QEP       0.049811
     46 H6           1.2590    -3.3730    -1.3350 hc         1 QEP       0.049811
     47 H7           3.7870    -5.4040     1.5220 hc         1 QEP       0.049811
     48 H8           2.1580    -4.8840     1.9820 hc         1 QEP       0.049811
     49 H9           2.3750    -6.2000     0.8300 hc         1 QEP       0.049811
     50 H10          3.7360     1.0560     1.2710 h1         1 QEP       0.058700
     51 H11          2.1180     1.9650    -0.1730 h1         1 QEP       0.078200
     52 H12          2.1350     0.5870    -1.2730 h1         1 QEP       0.078200
     53 H13         -0.3050     0.5200    -1.2680 h1         1 QEP       0.074200
     54 H14         -0.6570     1.7220    -0.0220 h1         1 QEP       0.074200
     55 H15         -1.9400     0.0560     1.2630 h1         1 QEP       0.073700
     56 H16         -3.8000    -1.2180     1.4430 ha         1 QEP       0.126500
     57 H17         -5.4980    -2.9220     1.7780 ha         1 QEP       0.126000
     58 H18         -5.2790    -5.1670     0.7440 ha         1 QEP       0.130000
     59 H19         -3.2930    -5.6520    -0.6700 ha         1 QEP       0.126000
     60 H20         -1.5800    -3.9420    -1.0370 ha         1 QEP       0.126500
     61 H21         -4.7380     1.9260    -1.6740 h1         1 QEP       0.067200
     62 H22         -4.8180     3.0440    -0.3260 h1         1 QEP       0.067200
     63 H23         -6.9020     3.1480     0.7410 h4         1 QEP       0.014100
     64 H24         -9.4160    -0.0750     1.1240 h4         1 QEP       0.019100
     65 H25         -7.8260    -1.5670    -0.0600 ha         1 QEP       0.145000
     66 H26         -5.6770    -0.6180    -0.8840 ha         1 QEP       0.157000
     67 H27          5.7020     0.7200    -0.1230 hc         1 QEP       0.069200
     68 H28          4.7170     0.2820    -1.5010 hc         1 QEP       0.069200
     69 H29          5.6830     2.2200     1.4720 ha         1 QEP       0.130000
     70 H30          6.2590     4.0970     2.9030 ha         1 QEP       0.131000
     71 H31          5.9540     6.4330     2.1110 ha         1 QEP       0.132000
     72 H32          5.0760     6.8570    -0.1480 ha         1 QEP       0.131000
     73 H33          4.2440     6.0380    -2.2890 ha         1 QEP       0.132000
     74 H34          3.6740     4.1570    -3.7750 ha         1 QEP       0.134000
     75 H35          3.9410     1.8310    -2.9920 ha         1 QEP       0.137000
     76 H36          3.7840    -1.0850     1.6980 hn         1 QEP       0.327500
     77 H37         -0.9000    -1.7420    -0.7680 hn         1 QEP       0.432800
     78 H38         -3.4830     1.5470     0.9690 hn         1 QEP       0.315500
     79 S11          0.9370     0.0690     0.7370 ss         1 QEP      -0.322200
@<TRIPOS>BOND
     1     1     2 1   
     2     1    41 1   
     3     1    42 1   
     4     1    43 1   
     5     2     3 1   
     6     2     4 1   
     7     2    38 1   
     8     3    44 1   
     9     3    45 1   
    10     3    46 1   
    11     4    47 1   
    12     4    48 1   
    13     4    49 1   
    14     5    34 1   
    15     5    38 1   
    16     5    39 2   
    17     6     7 1   
    18     6    23 1   
    19     6    34 1   
    20     6    50 1   
    21     7    51 1   
    22     7    52 1   
    23     7    79 1   
    24     8     9 1   
    25     8    53 1   
    26     8    54 1   
    27     8    79 1   
    28     9    16 1   
    29     9    35 1   
    30     9    55 1   
    31    10    11 ar  
    32    10    15 ar  
    33    10    35 1   
    34    11    12 ar  
    35    11    56 1   
    36    12    13 ar  
    37    12    57 1   
    38    13    14 ar  
    39    13    58 1   
    40    14    15 ar  
    41    14    59 1   
    42    15    60 1   
    43    16    36 1   
    44    16    40 2   
    45    17    18 1   
    46    17    36 1   
    47    17    61 1   
    48    17    62 1   
    49    18    19 ar  
    50    18    22 ar  
    51    19    37 ar  
    52    19    63 1   
    53    20    21 ar  
    54    20    37 ar  
    55    20    64 1   
    56    21    22 ar  
    57    21    65 1   
    58    22    66 1   
    59    23    24 1   
    60    23    67 1   
    61    23    68 1   
    62    24    25 ar  
    63    24    33 ar  
    64    25    26 ar  
    65    25    30 ar  
    66    26    27 ar  
    67    26    69 1   
    68    27    28 ar  
    69    27    70 1   
    70    28    29 ar  
    71    28    71 1   
    72    29    30 ar  
    73    29    72 1   
    74    30    31 ar  
    75    31    32 ar  
    76    31    73 1   
    77    32    33 ar  
    78    32    74 1   
    79    33    75 1   
    80    34    76 1   
    81    35    77 1   
    82    36    78 1   
@<TRIPOS>SUBSTRUCTURE
     1 QEP         1 TEMP              0 ****  ****    0 ROOT
