@<TRIPOS>MOLECULE
QEP
   79    82     1     0     0
SMALL
No Charge or Current Charge


@<TRIPOS>ATOM
      1 C01          2.3510    -4.5180     0.1910 c3         1 QEP      -0.110433
      2 C02          1.7320    -3.8260     1.4320 c3         1 QEP       0.226000
      3 C03          0.1930    -3.6730     1.3330 c3         1 QEP      -0.110433
      4 C04          2.1020    -4.6070     2.7130 c3         1 QEP      -0.110433
      5 C06          2.2380    -1.5260     0.6930 c          1 QEP       0.656100
      6 C09          3.1740     0.8110     0.4520 c3         1 QEP       0.156700
      7 C10          1.8360     1.5310     0.1390 c3         1 QEP       0.034600
      8 C12         -0.8470     2.1450     0.8570 c3         1 QEP       0.047600
      9 C13         -1.8620     0.9720     0.9060 c3         1 QEP       0.165500
     10 C15         -2.0370    -1.3510    -0.1920 ca         1 QEP       0.319000
     11 C16         -3.0900    -1.9040     0.5560 ca         1 QEP      -0.180000
     12 C17         -3.8220    -2.9920     0.0500 ca         1 QEP      -0.069500
     13 C18         -3.4990    -3.5280    -1.2070 ca         1 QEP      -0.158000
     14 C19         -2.4420    -2.9810    -1.9550 ca         1 QEP      -0.069500
     15 C20         -1.7110    -1.8950    -1.4430 ca         1 QEP      -0.180000
     16 C21         -3.2170     1.4110     0.2420 c          1 QEP       0.565100
     17 C24         -5.7190     1.3250     0.5040 c3         1 QEP       0.150300
     18 C25         -6.2410     0.0370    -0.1100 ca         1 QEP      -0.173300
     19 C26         -7.1310    -0.7880     0.6050 ca         1 QEP       0.340900
     20 C28         -7.2230    -2.3310    -1.1200 ca         1 QEP       0.338900
     21 C29         -6.3400    -1.5730    -1.9050 ca         1 QEP      -0.165000
     22 C30         -5.8350    -0.3660    -1.3960 ca         1 QEP      -0.052000
     23 C31          4.0570     0.6340    -0.8100 c3         1 QEP      -0.047100
     24 C32          4.4560     1.9640    -1.4570 ca         1 QEP      -0.071300
     25 C33          5.4750     2.8040    -0.9270 ca         1 QEP      -0.029000
     26 C34          6.2070     2.4550     0.2340 ca         1 QEP      -0.106000
     27 C35          7.2060     3.3080     0.7350 ca         1 QEP      -0.106000
     28 C36          7.4900     4.5190     0.0870 ca         1 QEP      -0.108000
     29 C37          6.7760     4.8780    -1.0660 ca         1 QEP      -0.097000
     30 C38          5.7740     4.0290    -1.5740 ca         1 QEP      -0.038000
     31 C39          5.0720     4.4110    -2.7310 ca         1 QEP      -0.099000
     32 C40          4.0720     3.5800    -3.2530 ca         1 QEP      -0.107000
     33 C41          3.7670     2.3660    -2.6200 ca         1 QEP      -0.104000
     34 N08          2.9810    -0.4710     1.1420 ns         1 QEP      -0.502900
     35 N14         -1.3000    -0.2790     0.3010 nu         1 QEP      -0.935200
     36 N23         -4.3510     1.1490     0.9870 ns         1 QEP      -0.502900
     37 N27         -7.6210    -1.9510     0.1160 nb         1 QEP      -0.667000
     38 O05          2.3450    -2.5290     1.6160 os         1 QEP      -0.475100
     39 O07          1.6100    -1.5460    -0.3530 o          1 QEP      -0.553000
     40 O22         -3.2810     1.9530    -0.8560 o          1 QEP      -0.589100
     41 H1           3.4460    -4.4810     0.2300 hc         1 QEP       0.049811
     42 H2           2.0500    -5.5720     0.1510 hc         1 QEP       0.049811
     43 H3           2.0230    -4.0510    -0.7440 hc         1 QEP       0.049811
     44 H4          -0.3020    -4.6370     1.4990 hc         1 QEP       0.049811
     45 H5          -0.1810    -2.9650     2.0810 hc         1 QEP       0.049811
     46 H6          -0.1090    -3.3260     0.3410 hc         1 QEP       0.049811
     47 H7           3.1910    -4.6810     2.8240 hc         1 QEP       0.049811
     48 H8           1.7010    -4.1070     3.6030 hc         1 QEP       0.049811
     49 H9           1.6950    -5.6240     2.6820 hc         1 QEP       0.049811
     50 H10          3.7200     1.4560     1.1520 h1         1 QEP       0.058700
     51 H11          2.0430     2.5280    -0.2690 h1         1 QEP       0.078200
     52 H12          1.2840     0.9680    -0.6230 h1         1 QEP       0.078200
     53 H13         -0.6750     2.4440    -0.1850 h1         1 QEP       0.074200
     54 H14         -1.2780     3.0060     1.3830 h1         1 QEP       0.074200
     55 H15         -2.0850     0.7760     1.9630 h1         1 QEP       0.073700
     56 H16         -3.3340    -1.5020     1.5340 ha         1 QEP       0.108500
     57 H17         -4.6380    -3.4170     0.6310 ha         1 QEP       0.108000
     58 H18         -4.0650    -4.3690    -1.6010 ha         1 QEP       0.112000
     59 H19         -2.1890    -3.3990    -2.9270 ha         1 QEP       0.108000
     60 H20         -0.8930    -1.4750    -2.0210 ha         1 QEP       0.108500
     61 H21         -5.7540     2.1340    -0.2380 h1         1 QEP       0.067200
     62 H22         -6.3560     1.6240     1.3480 h1         1 QEP       0.067200
     63 H23         -7.4640    -0.5110     1.6050 h4         1 QEP       0.014100
     64 H24         -7.6270    -3.2730    -1.4920 h4         1 QEP       0.019100
     65 H25         -6.0490    -1.9240    -2.8910 ha         1 QEP       0.127000
     66 H26         -5.1430     0.2360    -1.9820 ha         1 QEP       0.139000
     67 H27          4.9520     0.0560    -0.5510 hc         1 QEP       0.069200
     68 H28          3.5200     0.0100    -1.5330 hc         1 QEP       0.069200
     69 H29          6.0210     1.5260     0.7640 ha         1 QEP       0.112000
     70 H30          7.7610     3.0280     1.6270 ha         1 QEP       0.113000
     71 H31          8.2640     5.1770     0.4760 ha         1 QEP       0.114000
     72 H32          7.0020     5.8180    -1.5640 ha         1 QEP       0.113000
     73 H33          5.3010     5.3510    -3.2280 ha         1 QEP       0.114000
     74 H34          3.5300     3.8770    -4.1490 ha         1 QEP       0.116000
     75 H35          2.9840     1.7360    -3.0370 ha         1 QEP       0.119000
     76 H36          3.4250    -0.6100     2.0390 hn         1 QEP       0.327500
     77 H37         -0.3380    -0.2320    -0.0380 hn         1 QEP       0.488000
     78 H38         -4.2160     0.7040     1.8870 hn         1 QEP       0.315500
     79 S11          0.7790     1.7230     1.6530 ss         1 QEP      -0.418000
@<TRIPOS>BOND
     1     1     2 1   
     2     1    41 1   
     3     1    42 1   
     4     1    43 1   
     5     2     3 1   
     6     2     4 1   
     7     2    38 1   
     8     3    44 1   
     9     3    45 1   
    10     3    46 1   
    11     4    47 1   
    12     4    48 1   
    13     4    49 1   
    14     5    34 1   
    15     5    38 1   
    16     5    39 2   
    17     6     7 1   
    18     6    23 1   
    19     6    34 1   
    20     6    50 1   
    21     7    51 1   
    22     7    52 1   
    23     7    79 1   
    24     8     9 1   
    25     8    53 1   
    26     8    54 1   
    27     8    79 1   
    28     9    16 1   
    29     9    35 1   
    30     9    55 1   
    31    10    11 ar  
    32    10    15 ar  
    33    10    35 1   
    34    11    12 ar  
    35    11    56 1   
    36    12    13 ar  
    37    12    57 1   
    38    13    14 ar  
    39    13    58 1   
    40    14    15 ar  
    41    14    59 1   
    42    15    60 1   
    43    16    36 1   
    44    16    40 2   
    45    17    18 1   
    46    17    36 1   
    47    17    61 1   
    48    17    62 1   
    49    18    19 ar  
    50    18    22 ar  
    51    19    37 ar  
    52    19    63 1   
    53    20    21 ar  
    54    20    37 ar  
    55    20    64 1   
    56    21    22 ar  
    57    21    65 1   
    58    22    66 1   
    59    23    24 1   
    60    23    67 1   
    61    23    68 1   
    62    24    25 ar  
    63    24    33 ar  
    64    25    26 ar  
    65    25    30 ar  
    66    26    27 ar  
    67    26    69 1   
    68    27    28 ar  
    69    27    70 1   
    70    28    29 ar  
    71    28    71 1   
    72    29    30 ar  
    73    29    72 1   
    74    30    31 ar  
    75    31    32 ar  
    76    31    73 1   
    77    32    33 ar  
    78    32    74 1   
    79    33    75 1   
    80    34    76 1   
    81    35    77 1   
    82    36    78 1   
@<TRIPOS>SUBSTRUCTURE
     1 QEP         1 TEMP              0 ****  ****    0 ROOT
