@<TRIPOS>MOLECULE
QEQ
   37    40     1     0     0
SMALL
No Charge or Current Charge


@<TRIPOS>ATOM
      1 C10         25.2300   -12.5140    47.5550 c6         1 QEQ       0.183300
      2 C13         26.7250   -14.2290    49.3760 c6         1 QEQ       0.134600
      3 C15         27.5420   -14.0730    44.9860 ca         1 QEQ      -0.329000
      4 C17         29.0630   -16.4350    41.6730 cc         1 QEQ       0.296900
      5 C22         33.5210   -17.3450    42.6380 cc         1 QEQ       0.183900
      6 C02         29.9300   -15.1160    43.2780 cd         1 QEQ       0.099100
      7 C04         27.9400   -13.8240    43.6560 ca         1 QEQ       0.250500
      8 C06         27.0580   -11.7040    43.8610 ca         1 QEQ       0.188900
      9 C08         26.8880   -13.0560    45.7030 ca         1 QEQ       0.416900
     10 C11         25.2020   -12.3950    49.1070 c6         1 QEQ       0.134600
     11 C14         26.8390   -14.4450    47.8380 c6         1 QEQ       0.183300
     12 C18         30.2150   -16.1420    42.4240 cc         1 QEQ      -0.159200
     13 C23         32.5770   -16.4820    43.0960 cd         1 QEQ      -0.194000
     14 N03         28.5810   -14.8630    42.9760 na         1 QEQ       0.052300
     15 N05         27.6900   -12.6190    43.1020 nb         1 QEQ      -0.193000
     16 N07         26.6470   -11.8630    45.1320 nb         1 QEQ      -0.271000
     17 N09         26.4590   -13.2250    47.0430 nh         1 QEQ      -0.776300
     18 N16         28.0300   -15.6650    41.9790 nd         1 QEQ      -0.456800
     19 N19         31.4610   -16.7680    42.3270 na         1 QEQ       0.261000
     20 N20         31.7690   -17.7820    41.4490 nd         1 QEQ      -0.188800
     21 N21         33.0170   -18.1240    41.6420 nc         1 QEQ      -0.359000
     22 O12         25.4360   -13.6780    49.7280 os         1 QEQ      -0.438000
     23 H101        25.1580   -11.4950    47.1490 h1         1 QEQ       0.069950
     24 H102        24.3280   -13.0520    47.2290 h1         1 QEQ       0.069950
     25 H131        26.8630   -15.1860    49.8980 h1         1 QEQ       0.058200
     26 H132        27.5150   -13.5420    49.7140 h1         1 QEQ       0.058200
     27 H151        27.7240   -15.0470    45.4250 ha         1 QEQ       0.143000
     28 H171        28.9480   -17.1890    40.9050 h4         1 QEQ       0.062100
     29 H221        34.5460   -17.4610    42.9640 h4         1 QEQ       0.049100
     30 H061        26.8620   -10.7380    43.4000 h5         1 QEQ       0.058100
     31 H112        25.9740   -11.6860    49.4400 h1         1 QEQ       0.058200
     32 H111        24.2250   -12.0100    49.4320 h1         1 QEQ       0.058200
     33 H142        26.2000   -15.2940    47.5530 h1         1 QEQ       0.069950
     34 H141        27.8800   -14.7330    47.6280 h1         1 QEQ       0.069950
     35 H231        32.6370   -15.7380    43.8730 h4         1 QEQ       0.169000
     36 H011        30.1040   -13.7840    44.6320 ho         1 QEQ       0.490000
     37 O01         30.6770   -14.4480    44.1920 oh         1 QEQ      -0.505100
@<TRIPOS>BOND
     1     1    10 1   
     2     1    17 1   
     3     1    23 1   
     4     1    24 1   
     5     2    11 1   
     6     2    22 1   
     7     2    25 1   
     8     2    26 1   
     9     3     7 ar  
    10     3     9 ar  
    11     3    27 1   
    12     4    12 1   
    13     4    18 2   
    14     4    28 1   
    15     5    13 2   
    16     5    21 1   
    17     5    29 1   
    18     6    12 2   
    19     6    14 1   
    20     6    37 1   
    21     7    14 1   
    22     7    15 ar  
    23     8    15 ar  
    24     8    16 ar  
    25     8    30 1   
    26     9    16 ar  
    27     9    17 1   
    28    10    22 1   
    29    10    31 1   
    30    10    32 1   
    31    11    17 1   
    32    11    33 1   
    33    11    34 1   
    34    12    19 1   
    35    13    19 1   
    36    13    35 1   
    37    14    18 1   
    38    19    20 1   
    39    20    21 2   
    40    36    37 1   
@<TRIPOS>SUBSTRUCTURE
     1 QEQ         1 TEMP              0 ****  ****    0 ROOT
