@<TRIPOS>MOLECULE
QEQ
   37    40     1     0     0
SMALL
abcg2


@<TRIPOS>ATOM
      1 C10         25.1760   -12.6260    47.6180 c6         1 QEQ       0.183300
      2 C13         27.1890   -13.8310    49.1690 c6         1 QEQ       0.134600
      3 C15         27.4320   -14.2130    45.0500 ca         1 QEQ      -0.329000
      4 C17         29.4690   -15.7720    41.4040 cc         1 QEQ       0.296900
      5 C22         33.3780   -17.7060    42.8160 cc         1 QEQ       0.183900
      6 C02         29.8710   -15.1520    43.4860 cd         1 QEQ       0.099100
      7 C04         27.7270   -13.9180    43.7420 ca         1 QEQ       0.250500
      8 C06         26.3080   -12.2030    43.7360 ca         1 QEQ       0.188900
      9 C08         26.5240   -13.3410    45.6990 ca         1 QEQ       0.416900
     10 C11         25.7310   -12.0430    48.9050 c6         1 QEQ       0.134600
     11 C14         26.6960   -14.4860    47.8870 c6         1 QEQ       0.183300
     12 C18         30.4130   -15.8630    42.4430 cc         1 QEQ      -0.159200
     13 C23         32.1290   -17.4250    43.2950 cd         1 QEQ      -0.194000
     14 N03         28.6690   -14.7010    43.0450 na         1 QEQ       0.052300
     15 N05         27.1820   -12.9230    43.0530 nb         1 QEQ      -0.193000
     16 N07         25.9650   -12.3420    44.9990 nb         1 QEQ      -0.271000
     17 N09         26.1780   -13.4710    46.9880 nh         1 QEQ      -0.776300
     18 N16         28.4350   -15.0580    41.7640 nd         1 QEQ      -0.456800
     19 N19         31.6540   -16.5030    42.4340 na         1 QEQ       0.261000
     20 N20         32.5480   -16.2340    41.4860 nd         1 QEQ      -0.188800
     21 N21         33.5840   -16.9590    41.7090 nc         1 QEQ      -0.359000
     22 O12         26.1880   -13.0510    49.7780 os         1 QEQ      -0.438000
     23 H101        24.8830   -11.8270    46.9440 h1         1 QEQ       0.069950
     24 H102        24.2870   -13.2290    47.8330 h1         1 QEQ       0.069950
     25 H131        27.4850   -14.6040    49.8800 h1         1 QEQ       0.058200
     26 H132        28.0730   -13.2200    48.9410 h1         1 QEQ       0.058200
     27 H151        27.8410   -15.0880    45.5300 ha         1 QEQ       0.143000
     28 H171        29.5310   -16.2020    40.4160 h4         1 QEQ       0.062100
     29 H221        34.1160   -18.3920    43.1980 h4         1 QEQ       0.049100
     30 H061        25.8250   -11.3960    43.1960 h5         1 QEQ       0.058100
     31 H112        26.5400   -11.3380    48.6680 h1         1 QEQ       0.058200
     32 H111        24.9460   -11.4920    49.4240 h1         1 QEQ       0.058200
     33 H142        25.9050   -15.2100    48.1080 h1         1 QEQ       0.069950
     34 H141        27.5220   -15.0320    47.4410 h1         1 QEQ       0.069950
     35 H231        31.5600   -17.7970    44.1300 h4         1 QEQ       0.169000
     36 H011        30.1040   -14.1420    45.1060 ho         1 QEQ       0.490000
     37 O01         30.4000   -14.9610    44.6830 oh         1 QEQ      -0.505100
@<TRIPOS>BOND
     1     1    10 1   
     2     1    17 1   
     3     1    23 1   
     4     1    24 1   
     5     2    11 1   
     6     2    22 1   
     7     2    25 1   
     8     2    26 1   
     9     3     7 ar  
    10     3     9 ar  
    11     3    27 1   
    12     4    12 1   
    13     4    18 2   
    14     4    28 1   
    15     5    13 2   
    16     5    21 1   
    17     5    29 1   
    18     6    12 2   
    19     6    14 1   
    20     6    37 1   
    21     7    14 1   
    22     7    15 ar  
    23     8    15 ar  
    24     8    16 ar  
    25     8    30 1   
    26     9    16 ar  
    27     9    17 1   
    28    10    22 1   
    29    10    31 1   
    30    10    32 1   
    31    11    17 1   
    32    11    33 1   
    33    11    34 1   
    34    12    19 1   
    35    13    19 1   
    36    13    35 1   
    37    14    18 1   
    38    19    20 1   
    39    20    21 2   
    40    36    37 1   
@<TRIPOS>SUBSTRUCTURE
     1 QEQ         1 TEMP              0 ****  ****    0 ROOT
