@<TRIPOS>MOLECULE
QER
   34    36     1     0     0
SMALL
No Charge or Current Charge


@<TRIPOS>ATOM
      1 N1         -16.0440     5.3780    27.4780 nb         1 QER      -0.644000
      2 C4         -22.0090     4.4910    30.2330 ca         1 QER      -0.062300
      3 C5         -21.4100     5.8810    30.0470 c3         1 QER      -0.111100
      4 C6         -19.9230     5.7860    29.6880 c          1 QER       0.604100
      5 C7         -18.4310     5.8900    27.5910 ca         1 QER      -0.076000
      6 C8         -17.2100     5.4480    28.1620 ca         1 QER       0.325900
      7 C10        -17.2070     6.1960    25.5140 ca         1 QER      -0.087000
      8 C13        -19.5260     7.0880    24.2000 ca         1 QER      -0.089000
      9 C15        -18.4250     6.2700    26.2260 ca         1 QER      -0.028000
     10 O          -19.0670     5.5800    30.5400 o          1 QER      -0.571100
     11 C3         -21.9810     3.8670    31.4960 ca         1 QER      -0.104000
     12 C2         -22.5270     2.5820    31.6680 ca         1 QER      -0.082000
     13 C1         -23.1050     1.9130    30.5750 ca         1 QER      -0.140000
     14 C16        -22.5890     3.8150    29.1410 ca         1 QER      -0.145000
     15 C          -23.1330     2.5320    29.3160 ca         1 QER       0.166000
     16 F          -23.6870     1.8900    28.2650 f          1 QER      -0.184000
     17 N          -19.6490     5.9450    28.3350 ns         1 QER      -0.156000
     18 C14        -19.5870     6.7210    25.5560 ca         1 QER      -0.110000
     19 C12        -18.3110     7.0100    23.5010 ca         1 QER      -0.111000
     20 C11        -17.1510     6.5660    24.1560 ca         1 QER      -0.078000
     21 C9         -16.0500     5.7490    26.1790 ca         1 QER       0.347900
     22 H1         -21.5100     6.4520    30.9780 hc         1 QER       0.072200
     23 H2         -21.9530     6.3980    29.2460 hc         1 QER       0.072200
     24 H3         -17.1450     5.1220    29.1960 h4         1 QER       0.040100
     25 H4         -20.4230     7.4330    23.6910 ha         1 QER       0.115000
     26 H5         -21.5320     4.3750    32.3470 ha         1 QER       0.128000
     27 H6         -22.5020     2.1060    32.6460 ha         1 QER       0.122000
     28 H7         -23.5290     0.9200    30.7010 ha         1 QER       0.135000
     29 H8         -22.6190     4.2770    28.1580 ha         1 QER       0.126000
     30 H9         -20.4680     6.1230    27.7680 hn         1 QER       0.153000
     31 H10        -20.5420     6.7940    26.0690 ha         1 QER       0.110000
     32 H11        -18.2680     7.2960    22.4520 ha         1 QER       0.118000
     33 H12        -16.2120     6.5080    23.6090 ha         1 QER       0.120000
     34 H13        -15.0970     5.6820    25.6550 h4         1 QER       0.022100
@<TRIPOS>BOND
     1     1     6 ar  
     2     1    21 ar  
     3     2     3 1   
     4     2    11 ar  
     5     2    14 ar  
     6     3     4 1   
     7     3    22 1   
     8     3    23 1   
     9     4    10 2   
    10     4    17 1   
    11     5     6 ar  
    12     5     9 ar  
    13     5    17 1   
    14     6    24 1   
    15     7     9 ar  
    16     7    20 ar  
    17     7    21 ar  
    18     8    18 ar  
    19     8    19 ar  
    20     8    25 1   
    21     9    18 ar  
    22    11    12 ar  
    23    11    26 1   
    24    12    13 ar  
    25    12    27 1   
    26    13    15 ar  
    27    13    28 1   
    28    14    15 ar  
    29    14    29 1   
    30    15    16 1   
    31    17    30 1   
    32    18    31 1   
    33    19    20 ar  
    34    19    32 1   
    35    20    33 1   
    36    21    34 1   
@<TRIPOS>SUBSTRUCTURE
     1 QER         1 TEMP              0 ****  ****    0 ROOT
