@<TRIPOS>MOLECULE
QER
   34    36     1     0     0
SMALL
abcg2


@<TRIPOS>ATOM
      1 N1         -16.4810     4.7300    27.3260 nb         1 QER      -0.644000
      2 C4         -22.0760     4.4580    30.1830 ca         1 QER      -0.062300
      3 C5         -21.6800     5.8390    29.7130 c3         1 QER      -0.111100
      4 C6         -20.2090     5.8520    29.3190 c          1 QER       0.604100
      5 C7         -18.7230     5.6030    27.3580 ca         1 QER      -0.076000
      6 C8         -17.7030     4.8550    27.8980 ca         1 QER       0.325900
      7 C10        -17.2290     6.1370    25.5240 ca         1 QER      -0.087000
      8 C13        -19.1710     7.7290    24.3060 ca         1 QER      -0.089000
      9 C15        -18.5070     6.2910    26.1310 ca         1 QER      -0.028000
     10 O          -19.3180     5.9710    30.1490 o          1 QER      -0.571100
     11 C3         -21.9120     4.0860    31.5180 ca         1 QER      -0.104000
     12 C2         -22.2400     2.8020    31.9390 ca         1 QER      -0.082000
     13 C1         -22.7370     1.8660    31.0370 ca         1 QER      -0.140000
     14 C16        -22.5720     3.5260    29.2710 ca         1 QER      -0.145000
     15 C          -22.8900     2.2580    29.7200 ca         1 QER       0.166000
     16 F          -23.3800     1.3590    28.8250 f          1 QER      -0.184000
     17 N          -19.9830     5.6840    27.9850 ns         1 QER      -0.156000
     18 C14        -19.4680     7.1120    25.4960 ca         1 QER      -0.110000
     19 C12        -17.9090     7.5620    23.6960 ca         1 QER      -0.111000
     20 C11        -16.9530     6.7840    24.2970 ca         1 QER      -0.078000
     21 C9         -16.2620     5.3430    26.1850 ca         1 QER       0.347900
     22 H1         -21.8000     6.5600    30.5210 hc         1 QER       0.072200
     23 H2         -22.3060     6.1460    28.8750 hc         1 QER       0.072200
     24 H3         -17.8570     4.3250    28.8270 h4         1 QER       0.040100
     25 H4         -19.9130     8.3570    23.8290 ha         1 QER       0.115000
     26 H5         -21.5290     4.8070    32.2290 ha         1 QER       0.128000
     27 H6         -22.1120     2.5260    32.9770 ha         1 QER       0.122000
     28 H7         -23.0020     0.8630    31.3430 ha         1 QER       0.135000
     29 H8         -22.7130     3.7800    28.2290 ha         1 QER       0.126000
     30 H9         -20.7940     5.6710    27.3850 hn         1 QER       0.153000
     31 H10        -20.4370     7.2660    25.9510 ha         1 QER       0.110000
     32 H11        -17.6990     8.0570    22.7570 ha         1 QER       0.118000
     33 H12        -15.9770     6.6550    23.8460 ha         1 QER       0.120000
     34 H13        -15.2820     5.2260    25.7340 h4         1 QER       0.022100
@<TRIPOS>BOND
     1     1     6 ar  
     2     1    21 ar  
     3     2     3 1   
     4     2    11 ar  
     5     2    14 ar  
     6     3     4 1   
     7     3    22 1   
     8     3    23 1   
     9     4    10 2   
    10     4    17 1   
    11     5     6 ar  
    12     5     9 ar  
    13     5    17 1   
    14     6    24 1   
    15     7     9 ar  
    16     7    20 ar  
    17     7    21 ar  
    18     8    18 ar  
    19     8    19 ar  
    20     8    25 1   
    21     9    18 ar  
    22    11    12 ar  
    23    11    26 1   
    24    12    13 ar  
    25    12    27 1   
    26    13    15 ar  
    27    13    28 1   
    28    14    15 ar  
    29    14    29 1   
    30    15    16 1   
    31    17    30 1   
    32    18    31 1   
    33    19    20 ar  
    34    19    32 1   
    35    20    33 1   
    36    21    34 1   
@<TRIPOS>SUBSTRUCTURE
     1 QER         1 TEMP              0 ****  ****    0 ROOT
