@<TRIPOS>MOLECULE
QES
   77    80     1     0     0
SMALL
No Charge or Current Charge


@<TRIPOS>ATOM
      1 C01         -0.8830    -3.4800     1.2490 c3         1 QES      -0.108767
      2 C02         -2.4110    -3.2220     1.2410 c3         1 QES       0.225000
      3 C03         -3.1300    -3.8800     0.0350 c3         1 QES      -0.108767
      4 C04         -3.0360    -3.7190     2.5630 c3         1 QES      -0.108767
      5 C06         -2.2680    -0.9800     0.2180 c          1 QES       0.652100
      6 C09         -2.5730     1.4610    -0.3600 c3         1 QES       0.151700
      7 C10         -1.1040     1.7520    -0.7630 c3         1 QES       0.045600
      8 C12          1.6700     1.6850    -0.1340 c3         1 QES       0.043600
      9 C13          2.3340     0.2960     0.0610 c3         1 QES       0.148500
     10 C15          1.8460    -2.0940    -0.7990 ca         1 QES       0.308000
     11 C16          1.2260    -2.7090    -1.8980 ca         1 QES      -0.173500
     12 C17          1.5990    -4.0070    -2.2890 ca         1 QES      -0.076000
     13 C18          2.5950    -4.6930    -1.5750 ca         1 QES      -0.156000
     14 C19          3.2150    -4.0850    -0.4700 ca         1 QES      -0.076000
     15 C20          2.8370    -2.7870    -0.0830 ca         1 QES      -0.173500
     16 C21          3.7560     0.3060    -0.6100 c          1 QES       0.590100
     17 C24          6.2190     0.0140    -0.1560 c3         1 QES       0.151300
     18 C25          6.8950     1.3470     0.1100 ca         1 QES      -0.167300
     19 C26          7.6890     1.5290     1.2590 ca         1 QES       0.340900
     20 C28          8.1650     3.7240     0.6870 ca         1 QES       0.338900
     21 C29          7.3920     3.6320    -0.4820 ca         1 QES      -0.167000
     22 C30          6.7420     2.4240    -0.7820 ca         1 QES      -0.057000
     23 C31         -3.4960     1.3620    -1.6000 c3         1 QES      -0.022200
     24 C32         -4.9480     1.1530    -1.2500 cc         1 QES      -0.147400
     25 C33         -5.6900    -0.0160    -1.3960 cd         1 QES      -0.146100
     26 C35         -7.0510     1.5090    -0.4900 ca         1 QES      -0.047200
     27 C36         -5.8400     2.1170    -0.6690 ca         1 QES      -0.098800
     28 C37         -5.6240     3.4570    -0.3140 ca         1 QES      -0.067000
     29 C38         -6.7030     4.1730     0.2460 ca         1 QES      -0.139000
     30 C39         -7.9560     3.5450     0.4360 ca         1 QES      -0.092000
     31 C40         -8.1400     2.1960     0.0640 ca         1 QES      -0.127000
     32 N08         -2.7100     0.2790     0.5020 ns         1 QES      -0.489900
     33 N14          1.4500    -0.8140    -0.4210 nu         1 QES      -0.926200
     34 N23          4.8120     0.0450     0.2430 ns         1 QES      -0.513900
     35 N27          8.3170     2.6930     1.5500 nb         1 QES      -0.666000
     36 N34         -7.0090     0.1960    -0.9230 na         1 QES      -0.224700
     37 O05         -2.6670    -1.7990     1.2380 os         1 QES      -0.478100
     38 O07         -1.6370    -1.2930    -0.7780 o          1 QES      -0.565000
     39 O22          3.9340     0.5370    -1.8010 o          1 QES      -0.568100
     40 S11          0.0220     1.8210     0.7120 ss         1 QES      -0.423000
     41 H1          -0.3770    -2.8200     1.9630 hc         1 QES       0.048700
     42 H2          -0.6690    -4.5170     1.5330 hc         1 QES       0.048700
     43 H3          -0.4460    -3.3230     0.2590 hc         1 QES       0.048700
     44 H4          -3.1290    -4.9720     0.1390 hc         1 QES       0.048700
     45 H5          -4.1730    -3.5470    -0.0250 hc         1 QES       0.048700
     46 H6          -2.6370    -3.6450    -0.9140 hc         1 QES       0.048700
     47 H7          -2.5630    -3.2330     3.4250 hc         1 QES       0.048700
     48 H8          -4.1100    -3.5000     2.5940 hc         1 QES       0.048700
     49 H9          -2.9070    -4.8030     2.6730 hc         1 QES       0.048700
     50 H10         -2.9150     2.3190     0.2340 h1         1 QES       0.061700
     51 H11         -0.7500     0.9760    -1.4520 h1         1 QES       0.077200
     52 H12         -1.0540     2.7120    -1.2920 h1         1 QES       0.077200
     53 H13          2.3360     2.4540     0.2800 h1         1 QES       0.080700
     54 H14          1.5520     1.8920    -1.2060 h1         1 QES       0.080700
     55 H15          2.4980     0.1560     1.1380 h1         1 QES       0.044700
     56 H16          0.4550    -2.1810    -2.4510 ha         1 QES       0.116500
     57 H17          1.1160    -4.4780    -3.1430 ha         1 QES       0.105000
     58 H18          2.8850    -5.6980    -1.8760 ha         1 QES       0.110000
     59 H19          3.9810    -4.6190     0.0870 ha         1 QES       0.105000
     60 H20          3.3060    -2.3310     0.7830 ha         1 QES       0.116500
     61 H21          6.2990    -0.2390    -1.2220 h1         1 QES       0.067700
     62 H22          6.7260    -0.7810     0.4080 h1         1 QES       0.067700
     63 H23          7.8290     0.7180     1.9730 h4         1 QES       0.016100
     64 H24          8.6780     4.6510     0.9420 h4         1 QES       0.019100
     65 H25          7.3010     4.4900    -1.1430 ha         1 QES       0.125000
     66 H26          6.1380     2.3270    -1.6830 ha         1 QES       0.131000
     67 H27         -3.3980     2.2810    -2.1920 hc         1 QES       0.061200
     68 H28         -3.1520     0.5460    -2.2460 hc         1 QES       0.061200
     69 H29         -5.3740    -0.9780    -1.7910 h4         1 QES       0.219000
     70 H30         -4.6580     3.9320    -0.4670 ha         1 QES       0.111000
     71 H31         -6.5690     5.2140     0.5330 ha         1 QES       0.111000
     72 H32         -8.7830     4.1040     0.8680 ha         1 QES       0.111000
     73 H33         -9.1000     1.7050     0.2040 ha         1 QES       0.113000
     74 H34         -3.2240     0.3690     1.3670 hn         1 QES       0.332500
     75 H35          0.4840    -0.5740    -0.6580 hn         1 QES       0.489000
     76 H36          4.5840    -0.1360     1.2140 hn         1 QES       0.313500
     77 H37         -7.7680    -0.4780    -0.9030 hn         1 QES       0.351000
@<TRIPOS>BOND
     1     1     2 1   
     2     1    41 1   
     3     1    42 1   
     4     1    43 1   
     5     2     3 1   
     6     2     4 1   
     7     2    37 1   
     8     3    44 1   
     9     3    45 1   
    10     3    46 1   
    11     4    47 1   
    12     4    48 1   
    13     4    49 1   
    14     5    32 1   
    15     5    37 1   
    16     5    38 2   
    17     6     7 1   
    18     6    23 1   
    19     6    32 1   
    20     6    50 1   
    21     7    40 1   
    22     7    51 1   
    23     7    52 1   
    24     8     9 1   
    25     8    40 1   
    26     8    53 1   
    27     8    54 1   
    28     9    16 1   
    29     9    33 1   
    30     9    55 1   
    31    10    11 ar  
    32    10    15 ar  
    33    10    33 1   
    34    11    12 ar  
    35    11    56 1   
    36    12    13 ar  
    37    12    57 1   
    38    13    14 ar  
    39    13    58 1   
    40    14    15 ar  
    41    14    59 1   
    42    15    60 1   
    43    16    34 1   
    44    16    39 2   
    45    17    18 1   
    46    17    34 1   
    47    17    61 1   
    48    17    62 1   
    49    18    19 ar  
    50    18    22 ar  
    51    19    35 ar  
    52    19    63 1   
    53    20    21 ar  
    54    20    35 ar  
    55    20    64 1   
    56    21    22 ar  
    57    21    65 1   
    58    22    66 1   
    59    23    24 1   
    60    23    67 1   
    61    23    68 1   
    62    24    25 2   
    63    24    27 1   
    64    25    36 1   
    65    25    69 1   
    66    26    27 ar  
    67    26    31 ar  
    68    26    36 1   
    69    27    28 ar  
    70    28    29 ar  
    71    28    70 1   
    72    29    30 ar  
    73    29    71 1   
    74    30    31 ar  
    75    30    72 1   
    76    31    73 1   
    77    32    74 1   
    78    33    75 1   
    79    34    76 1   
    80    36    77 1   
@<TRIPOS>SUBSTRUCTURE
     1 QES         1 TEMP              0 ****  ****    0 ROOT
