@<TRIPOS>MOLECULE
QES
   77    80     1     0     0
SMALL
bcc


@<TRIPOS>ATOM
      1 C01         -1.9910    -4.1380     0.5200 c3         1 QES      -0.108767
      2 C02         -3.2570    -3.3400     0.8050 c3         1 QES       0.201800
      3 C03         -4.2660    -3.4410    -0.3320 c3         1 QES      -0.108767
      4 C04         -3.8880    -3.8320     2.1020 c3         1 QES      -0.108767
      5 C06         -2.4130    -1.1240     0.1980 c          1 QES       0.768100
      6 C09         -2.0900     1.2980    -0.1480 c3         1 QES       0.151700
      7 C10         -0.6000     1.3110    -0.4720 c3         1 QES      -0.002300
      8 C12          2.0520     1.0670     0.3320 c3         1 QES      -0.004300
      9 C13          2.7530    -0.2950     0.2270 c3         1 QES       0.148500
     10 C15          2.2790    -2.5660    -0.5730 ca         1 QES       0.169600
     11 C16          1.3420    -3.4620    -1.1080 ca         1 QES      -0.191500
     12 C17          1.6330    -4.8080    -1.2280 ca         1 QES      -0.094000
     13 C18          2.8700    -5.3060    -0.8270 ca         1 QES      -0.174000
     14 C19          3.8000    -4.4260    -0.2960 ca         1 QES      -0.094000
     15 C20          3.5160    -3.0720    -0.1610 ca         1 QES      -0.191500
     16 C21          4.0630    -0.0290    -0.5270 c          1 QES       0.657100
     17 C24          6.4090     0.6530    -0.2060 c3         1 QES       0.151300
     18 C25          6.6190     2.1400    -0.1030 ca         1 QES      -0.232600
     19 C26          7.6340     2.6650     0.6870 ca         1 QES       0.406200
     20 C28          7.0920     4.8110     0.1680 ca         1 QES       0.404200
     21 C29          6.0460     4.4000    -0.6470 ca         1 QES      -0.250300
     22 C30          5.8080     3.0430    -0.7840 ca         1 QES      -0.075000
     23 C31         -2.8990     1.4800    -1.4460 c3         1 QES      -0.022200
     24 C32         -4.3690     1.3660    -1.2410 cc         1 QES      -0.147400
     25 C33         -5.1610     0.3100    -1.5920 cd         1 QES      -0.096100
     26 C35         -6.5340     1.7630    -0.6090 ca         1 QES      -0.047200
     27 C36         -5.2320     2.3130    -0.6000 ca         1 QES      -0.098800
     28 C37         -5.0330     3.5760    -0.0300 ca         1 QES      -0.085000
     29 C38         -6.1150     4.2500     0.5020 ca         1 QES      -0.157000
     30 C39         -7.4020     3.6850     0.4790 ca         1 QES      -0.110000
     31 C40         -7.6290     2.4390    -0.0740 ca         1 QES      -0.145000
     32 N08         -2.4950     0.1500     0.6330 ns         1 QES      -0.556900
     33 N14          1.9390    -1.2280    -0.4940 nu         1 QES      -0.732600
     34 N23          5.1070     0.2440     0.2720 ns         1 QES      -0.580900
     35 N27          7.8740     3.9650     0.8240 nb         1 QES      -0.666000
     36 N34         -6.4550     0.5440    -1.2150 na         1 QES      -0.174400
     37 O05         -2.9690    -1.9460     1.0900 os         1 QES      -0.454900
     38 O07         -1.8810    -1.4620    -0.8420 o          1 QES      -0.614000
     39 O22          4.1110    -0.0160    -1.7440 o          1 QES      -0.568100
     40 S11          0.3760     0.9710     1.0260 ss         1 QES      -0.327200
     41 H1          -1.2340    -3.9630     1.2860 hc         1 QES       0.048700
     42 H2          -2.2330    -5.2020     0.5350 hc         1 QES       0.048700
     43 H3          -1.5600    -3.9070    -0.4490 hc         1 QES       0.048700
     44 H4          -4.5310    -4.4860    -0.4940 hc         1 QES       0.048700
     45 H5          -5.1830    -2.9030    -0.0830 hc         1 QES       0.048700
     46 H6          -3.8760    -3.0500    -1.2700 hc         1 QES       0.048700
     47 H7          -3.1830    -3.7710     2.9330 hc         1 QES       0.048700
     48 H8          -4.7770    -3.2550     2.3580 hc         1 QES       0.048700
     49 H9          -4.1870    -4.8750     1.9950 hc         1 QES       0.048700
     50 H10         -2.2910     2.1540     0.5010 h1         1 QES       0.061700
     51 H11         -0.3640     0.5790    -1.2430 h1         1 QES       0.077200
     52 H12         -0.3350     2.2990    -0.8510 h1         1 QES       0.077200
     53 H13          2.6470     1.7260     0.9640 h1         1 QES       0.080700
     54 H14          1.9820     1.5310    -0.6540 h1         1 QES       0.080700
     55 H15          2.9790    -0.6480     1.2450 h1         1 QES       0.044700
     56 H16          0.3770    -3.0870    -1.4270 ha         1 QES       0.134500
     57 H17          0.8850    -5.4740    -1.6390 ha         1 QES       0.123000
     58 H18          3.0980    -6.3590    -0.9240 ha         1 QES       0.128000
     59 H19          4.7650    -4.7910     0.0320 ha         1 QES       0.123000
     60 H20          4.2690    -2.4320     0.2790 ha         1 QES       0.134500
     61 H21          6.5140     0.3260    -1.2400 h1         1 QES       0.067700
     62 H22          7.1710     0.1300     0.3720 h1         1 QES       0.067700
     63 H23          8.2860     1.9950     1.2390 h4         1 QES       0.016100
     64 H24          7.3040     5.8670     0.2930 h4         1 QES       0.019100
     65 H25          5.4360     5.1290    -1.1640 ha         1 QES       0.143000
     66 H26          5.0040     2.6920    -1.4190 ha         1 QES       0.149000
     67 H27         -2.6440     2.4630    -1.8540 hc         1 QES       0.061200
     68 H28         -2.5720     0.7460    -2.1840 hc         1 QES       0.061200
     69 H29         -4.8930    -0.6050    -2.0970 h4         1 QES       0.169000
     70 H30         -4.0450     4.0220    -0.0050 ha         1 QES       0.129000
     71 H31         -5.9730     5.2270     0.9460 ha         1 QES       0.129000
     72 H32         -8.2320     4.2380     0.9010 ha         1 QES       0.129000
     73 H33         -8.6220     2.0090    -0.0940 ha         1 QES       0.131000
     74 H34         -3.0670     0.3280     1.4420 hn         1 QES       0.332500
     75 H35          0.9480    -1.0800    -0.3530 hn         1 QES       0.433800
     76 H36          4.9720     0.2200     1.2710 hn         1 QES       0.313500
     77 H37         -7.2270    -0.0770    -1.3870 hn         1 QES       0.300700
@<TRIPOS>BOND
     1     1     2 1   
     2     1    41 1   
     3     1    42 1   
     4     1    43 1   
     5     2     3 1   
     6     2     4 1   
     7     2    37 1   
     8     3    44 1   
     9     3    45 1   
    10     3    46 1   
    11     4    47 1   
    12     4    48 1   
    13     4    49 1   
    14     5    32 1   
    15     5    37 1   
    16     5    38 2   
    17     6     7 1   
    18     6    23 1   
    19     6    32 1   
    20     6    50 1   
    21     7    40 1   
    22     7    51 1   
    23     7    52 1   
    24     8     9 1   
    25     8    40 1   
    26     8    53 1   
    27     8    54 1   
    28     9    16 1   
    29     9    33 1   
    30     9    55 1   
    31    10    11 ar  
    32    10    15 ar  
    33    10    33 1   
    34    11    12 ar  
    35    11    56 1   
    36    12    13 ar  
    37    12    57 1   
    38    13    14 ar  
    39    13    58 1   
    40    14    15 ar  
    41    14    59 1   
    42    15    60 1   
    43    16    34 1   
    44    16    39 2   
    45    17    18 1   
    46    17    34 1   
    47    17    61 1   
    48    17    62 1   
    49    18    19 ar  
    50    18    22 ar  
    51    19    35 ar  
    52    19    63 1   
    53    20    21 ar  
    54    20    35 ar  
    55    20    64 1   
    56    21    22 ar  
    57    21    65 1   
    58    22    66 1   
    59    23    24 1   
    60    23    67 1   
    61    23    68 1   
    62    24    25 2   
    63    24    27 1   
    64    25    36 1   
    65    25    69 1   
    66    26    27 ar  
    67    26    31 ar  
    68    26    36 1   
    69    27    28 ar  
    70    28    29 ar  
    71    28    70 1   
    72    29    30 ar  
    73    29    71 1   
    74    30    31 ar  
    75    30    72 1   
    76    31    73 1   
    77    32    74 1   
    78    33    75 1   
    79    34    76 1   
    80    36    77 1   
@<TRIPOS>SUBSTRUCTURE
     1 QES         1 TEMP              0 ****  ****    0 ROOT
