@<TRIPOS>MOLECULE
QET
   61    64     1     0     0
SMALL
No Charge or Current Charge


@<TRIPOS>ATOM
      1 C10         -6.6360     6.7430    36.1630 c          1 QET       0.629700
      2 C13         -4.0640     4.5850    39.8530 ca         1 QET      -0.123000
      3 C15         -5.7090     4.4090    41.6750 ca         1 QET       0.079100
      4 C17         -6.2850     5.4990    39.5770 ca         1 QET      -0.101300
      5 C20         -5.2200     3.4270    46.5710 c6         1 QET       0.155600
      6 C21         -6.0960     3.4440    45.2990 c6         1 QET      -0.129900
      7 C22         -5.2700     3.9090    44.0770 c6         1 QET       0.175300
      8 C24         -3.7710     5.1620    45.7070 c6         1 QET       0.155600
      9 C01         -4.0130     4.5850    31.3470 c3         1 QET      -0.338100
     10 N01         -6.1810     6.4540    37.4630 n          1 QET      -0.407800
     11 O01         -6.3960     5.6230    31.0090 o          1 QET      -0.518000
     12 C02         -4.8480     6.8370    32.8070 ca         1 QET      -0.310500
     13 O02         -4.3420     6.9150    30.1910 o          1 QET      -0.518000
     14 C03         -3.8020     7.7440    33.0540 ca         1 QET       0.037000
     15 C04         -3.6880     8.3490    34.3160 ca         1 QET      -0.220000
     16 O04         -7.8340     6.7650    35.9090 o          1 QET      -0.574100
     17 C05         -4.6030     8.0380    35.3430 ca         1 QET       0.213100
     18 O05         -6.1480     4.0250    42.9350 os         1 QET      -0.349100
     19 C06         -3.5410     9.6260    36.9260 c3         1 QET       0.110600
     20 O06         -4.6370     4.7310    46.7790 os         1 QET      -0.445000
     21 C07         -3.7240    10.0150    38.4170 c3         1 QET       0.127000
     22 C08         -5.0880    10.6950    38.7470 c3         1 QET       0.276000
     23 C09         -5.6290     7.1000    35.1060 ca         1 QET      -0.189600
     24 C11         -4.8460     5.8060    37.6930 c5         1 QET       0.163300
     25 C12         -5.0220     5.2620    39.0840 ca         1 QET      -0.089300
     26 C14         -4.4050     4.1510    41.1490 ca         1 QET       0.148000
     27 C16         -6.6500     5.0760    40.8650 ca         1 QET      -0.082000
     28 C18         -7.1480     6.2310    38.5860 c5         1 QET       0.154300
     29 C19         -5.7640     6.5230    33.8290 ca         1 QET       0.053000
     30 C23         -4.5760     5.2620    44.3920 c6         1 QET      -0.129900
     31 F01         -2.7160    10.8530    38.7600 f          1 QET      -0.084000
     32 F02         -3.5750     8.9070    39.1840 f          1 QET      -0.084000
     33 F03         -5.1100    11.1600    40.0190 f          1 QET      -0.088667
     34 F04         -6.1220     9.8310    38.6120 f          1 QET      -0.088667
     35 F05         -5.3260    11.7380    37.9170 f          1 QET      -0.088667
     36 F06         -3.4690     3.4670    41.8460 f          1 QET      -0.169000
     37 H03         -3.0720     4.3900    39.4550 ha         1 QET       0.136000
     38 H19         -5.8320     3.1650    47.4470 h1         1 QET       0.047450
     39 H11         -4.4190     2.6790    46.4770 h1         1 QET       0.047450
     40 H20         -6.9520     4.1150    45.4520 hc         1 QET       0.063700
     41 H12         -6.5060     2.4420    45.1160 hc         1 QET       0.063700
     42 H06         -4.5150     3.1360    43.8850 h1         1 QET       0.045700
     43 H14         -2.9430     4.4470    45.5970 h1         1 QET       0.047450
     44 H22         -3.3450     6.1420    45.9640 h1         1 QET       0.047450
     45 H23         -4.4320     3.9770    32.1560 h1         1 QET       0.102700
     46 H07         -4.0520     4.0450    30.3960 h1         1 QET       0.102700
     47 H15         -2.9870     4.8860    31.5810 h1         1 QET       0.102700
     48 H01         -3.0850     7.9950    32.2730 ha         1 QET       0.144000
     49 H02         -2.8880     9.0660    34.4710 ha         1 QET       0.128000
     50 H16         -2.5390     9.1950    36.7960 h1         1 QET       0.079700
     51 H08         -3.6140    10.5220    36.2960 h1         1 QET       0.079700
     52 H09         -4.6540     5.0020    36.9700 h1         1 QET       0.056700
     53 H17         -4.0170     6.5220    37.6590 h1         1 QET       0.056700
     54 H04         -7.6510     5.2700    41.2420 ha         1 QET       0.137000
     55 H10         -7.5160     7.1810    38.9960 h1         1 QET       0.073700
     56 H18         -8.0060     5.6180    38.2780 h1         1 QET       0.073700
     57 H05         -6.5750     5.8180    33.6430 ha         1 QET       0.151000
     58 H21         -3.9020     5.5530    43.5760 hc         1 QET       0.063700
     59 H13         -5.3280     6.0580    44.4810 hc         1 QET       0.063700
     60 S01         -5.0080     6.0660    31.1880 sy         1 QET       1.068500
     61 O03         -4.5530     8.6670    36.5690 os         1 QET      -0.328100
@<TRIPOS>BOND
     1     1    10 1   
     2     1    16 2   
     3     1    23 1   
     4     2    25 ar  
     5     2    26 ar  
     6     2    37 1   
     7     3    18 1   
     8     3    26 ar  
     9     3    27 ar  
    10     4    25 ar  
    11     4    27 ar  
    12     4    28 1   
    13     5     6 1   
    14     5    20 1   
    15     5    38 1   
    16     5    39 1   
    17     6     7 1   
    18     6    40 1   
    19     6    41 1   
    20     7    18 1   
    21     7    30 1   
    22     7    42 1   
    23     8    20 1   
    24     8    30 1   
    25     8    43 1   
    26     8    44 1   
    27     9    45 1   
    28     9    46 1   
    29     9    47 1   
    30     9    60 1   
    31    10    24 1   
    32    10    28 1   
    33    11    60 2   
    34    12    14 ar  
    35    12    29 ar  
    36    12    60 1   
    37    13    60 2   
    38    14    15 ar  
    39    14    48 1   
    40    15    17 ar  
    41    15    49 1   
    42    17    23 ar  
    43    17    61 1   
    44    19    21 1   
    45    19    50 1   
    46    19    51 1   
    47    19    61 1   
    48    21    22 1   
    49    21    31 1   
    50    21    32 1   
    51    22    33 1   
    52    22    34 1   
    53    22    35 1   
    54    23    29 ar  
    55    24    25 1   
    56    24    52 1   
    57    24    53 1   
    58    26    36 1   
    59    27    54 1   
    60    28    55 1   
    61    28    56 1   
    62    29    57 1   
    63    30    58 1   
    64    30    59 1   
@<TRIPOS>SUBSTRUCTURE
     1 QET         1 TEMP              0 ****  ****    0 ROOT
