@<TRIPOS>MOLECULE
QET
   61    64     1     0     0
SMALL
abcg2


@<TRIPOS>ATOM
      1 C10         -6.6310     7.0430    36.4390 c          1 QET       0.629700
      2 C13         -4.1630     4.0210    39.4590 ca         1 QET      -0.123000
      3 C15         -5.6120     3.9450    41.4150 ca         1 QET       0.079100
      4 C17         -6.2860     5.1610    39.4680 ca         1 QET      -0.101300
      5 C20         -4.7260     4.2090    46.1630 c6         1 QET       0.155600
      6 C21         -5.3520     3.4400    45.0060 c6         1 QET      -0.129900
      7 C22         -5.1630     4.2180    43.7180 c6         1 QET       0.175300
      8 C24         -5.0390     6.2700    45.1110 c6         1 QET       0.155600
      9 C01         -4.2260     4.6800    31.6520 c3         1 QET      -0.338100
     10 N01         -6.2670     6.2210    37.4280 n          1 QET      -0.407800
     11 O01         -6.4850     5.9840    31.2890 o          1 QET      -0.518000
     12 C02         -4.8670     6.9830    33.1000 ca         1 QET      -0.310500
     13 O02         -4.3390     7.0620    30.5370 o          1 QET      -0.518000
     14 C03         -3.7980     7.8340    33.3250 ca         1 QET       0.037000
     15 C04         -3.6290     8.4140    34.5710 ca         1 QET      -0.220000
     16 O04         -7.7200     7.5930    36.3930 o          1 QET      -0.574100
     17 C05         -4.5300     8.1230    35.5890 ca         1 QET       0.213100
     18 O05         -5.8390     3.5010    42.6760 os         1 QET      -0.349100
     19 C06         -3.3040     9.3450    37.2130 c3         1 QET       0.110600
     20 O06         -5.2530     5.5110    46.2780 os         1 QET      -0.445000
     21 C07         -3.2750     9.3930    38.7290 c3         1 QET       0.127000
     22 C08         -4.4810    10.0630    39.4180 c3         1 QET       0.276000
     23 C09         -5.6140     7.2690    35.3560 ca         1 QET      -0.189600
     24 C11         -5.0330     5.4390    37.4740 c5         1 QET       0.163300
     25 C12         -5.1040     4.8230    38.8340 ca         1 QET      -0.089300
     26 C14         -4.4420     3.5930    40.7400 ca         1 QET       0.148000
     27 C16         -6.5480     4.7340    40.7590 ca         1 QET      -0.082000
     28 C18         -7.1380     6.0100    38.5800 c5         1 QET       0.154300
     29 C19         -5.7890     6.7130    34.1040 ca         1 QET       0.053000
     30 C23         -5.6910     5.6340    43.8900 c6         1 QET      -0.129900
     31 F01         -2.1720    10.0840    39.0930 f          1 QET      -0.084000
     32 F02         -3.1710     8.1460    39.2390 f          1 QET      -0.084000
     33 F03         -4.2390    10.2290    40.7150 f          1 QET      -0.088667
     34 F04         -5.5790     9.3260    39.2960 f          1 QET      -0.088667
     35 F05         -4.7130    11.2590    38.8820 f          1 QET      -0.088667
     36 F06         -3.5580     2.8050    41.3700 f          1 QET      -0.169000
     37 H03         -3.2370     3.7350    38.9760 ha         1 QET       0.136000
     38 H19         -4.9200     3.6980    47.1060 h1         1 QET       0.047450
     39 H11         -3.6350     4.2490    46.0280 h1         1 QET       0.047450
     40 H20         -6.4200     3.2920    45.1930 hc         1 QET       0.063700
     41 H12         -4.8860     2.4540    44.9350 hc         1 QET       0.063700
     42 H06         -4.0890     4.2700    43.4920 h1         1 QET       0.045700
     43 H14         -3.9620     6.3980    44.9270 h1         1 QET       0.047450
     44 H22         -5.4580     7.2620    45.2900 h1         1 QET       0.047450
     45 H23         -4.7000     4.0890    32.4340 h1         1 QET       0.102700
     46 H07         -4.3120     4.1690    30.6930 h1         1 QET       0.102700
     47 H15         -3.1790     4.8540    31.8910 h1         1 QET       0.102700
     48 H01         -3.0910     8.0590    32.5380 ha         1 QET       0.144000
     49 H02         -2.8010     9.0920    34.7230 ha         1 QET       0.128000
     50 H16         -2.3800     8.8530    36.8910 h1         1 QET       0.079700
     51 H08         -3.3150    10.3580    36.8000 h1         1 QET       0.079700
     52 H09         -5.0040     4.6850    36.6810 h1         1 QET       0.056700
     53 H17         -4.1440     6.0620    37.3680 h1         1 QET       0.056700
     54 H04         -7.4650     5.0050    41.2670 ha         1 QET       0.137000
     55 H10         -7.4140     6.9610    39.0420 h1         1 QET       0.073700
     56 H18         -8.0650     5.5040    38.2940 h1         1 QET       0.073700
     57 H05         -6.6320     6.0590    33.9200 ha         1 QET       0.151000
     58 H21         -5.4740     6.2500    43.0130 hc         1 QET       0.063700
     59 H13         -6.7770     5.6100    44.0170 hc         1 QET       0.063700
     60 S01         -5.0640     6.2420    31.5040 sy         1 QET       1.068500
     61 O03         -4.4450     8.6170    36.8350 os         1 QET      -0.328100
@<TRIPOS>BOND
     1     1    10 1   
     2     1    16 2   
     3     1    23 1   
     4     2    25 ar  
     5     2    26 ar  
     6     2    37 1   
     7     3    18 1   
     8     3    26 ar  
     9     3    27 ar  
    10     4    25 ar  
    11     4    27 ar  
    12     4    28 1   
    13     5     6 1   
    14     5    20 1   
    15     5    38 1   
    16     5    39 1   
    17     6     7 1   
    18     6    40 1   
    19     6    41 1   
    20     7    18 1   
    21     7    30 1   
    22     7    42 1   
    23     8    20 1   
    24     8    30 1   
    25     8    43 1   
    26     8    44 1   
    27     9    45 1   
    28     9    46 1   
    29     9    47 1   
    30     9    60 1   
    31    10    24 1   
    32    10    28 1   
    33    11    60 2   
    34    12    14 ar  
    35    12    29 ar  
    36    12    60 1   
    37    13    60 2   
    38    14    15 ar  
    39    14    48 1   
    40    15    17 ar  
    41    15    49 1   
    42    17    23 ar  
    43    17    61 1   
    44    19    21 1   
    45    19    50 1   
    46    19    51 1   
    47    19    61 1   
    48    21    22 1   
    49    21    31 1   
    50    21    32 1   
    51    22    33 1   
    52    22    34 1   
    53    22    35 1   
    54    23    29 ar  
    55    24    25 1   
    56    24    52 1   
    57    24    53 1   
    58    26    36 1   
    59    27    54 1   
    60    28    55 1   
    61    28    56 1   
    62    29    57 1   
    63    30    58 1   
    64    30    59 1   
@<TRIPOS>SUBSTRUCTURE
     1 QET         1 TEMP              0 ****  ****    0 ROOT
