@<TRIPOS>MOLECULE
QEU
   51    53     1     0     0
SMALL
No Charge or Current Charge


@<TRIPOS>ATOM
      1 C10          4.8690     8.9770   -15.6940 ca         1 QEU      -0.208000
      2 C17          8.5410     3.3520   -13.9020 c6         1 QEU       0.172300
      3 C20         11.7060     2.8800   -13.9610 c3         1 QEU      -0.116400
      4 C21         12.9580     2.1460   -13.4190 c3         1 QEU      -0.101400
      5 C22         14.1030     3.0800   -12.9690 c3         1 QEU       0.165600
      6 C24          9.5090     3.2370   -16.2110 c6         1 QEU       0.172300
      7 C01          2.2240    10.0850   -16.0370 c3         1 QEU       0.143900
      8 C03          3.7780     8.1460   -16.0390 ca         1 QEU       0.159100
      9 C04          4.0050     6.7470   -16.2190 ca         1 QEU       0.052100
     10 C06          1.6510     6.1150   -16.8070 c3         1 QEU       0.148900
     11 C07          5.3010     6.2340   -16.0380 ca         1 QEU      -0.055000
     12 C08          6.3780     7.0710   -15.6760 ca         1 QEU      -0.201000
     13 C09          6.1610     8.4570   -15.5170 ca         1 QEU       0.081000
     14 C12          8.4010     8.7250   -15.0590 ca         1 QEU       0.188900
     15 C14          7.6960     6.5860   -15.4810 ca         1 QEU       0.435900
     16 C16          7.4500     4.2410   -14.5810 c6         1 QEU       0.180800
     17 C19         10.5600     1.9050   -14.3330 c3         1 QEU       0.199800
     18 C25          9.3670     4.7930   -16.1320 c6         1 QEU       0.180800
     19 N11          7.1820     9.2790   -15.2050 nb         1 QEU      -0.257000
     20 N13          8.7080     7.4220   -15.1820 nb         1 QEU      -0.312000
     21 N15          8.0380     5.2160   -15.5650 nh         1 QEU      -0.760300
     22 N18          9.3360     2.5410   -14.8880 n3         1 QEU      -0.772600
     23 O02          2.5120     8.6850   -16.2060 os         1 QEU      -0.332100
     24 O05          3.0380     5.8110   -16.5700 os         1 QEU      -0.352100
     25 O23         14.6530     3.7750   -14.0950 oh         1 QEU      -0.686000
     26 H101         4.7350    10.0460   -15.5590 ha         1 QEU       0.140000
     27 H171         8.0580     2.6890   -13.1700 h1         1 QEU       0.054450
     28 H172         9.1970     4.0240   -13.3320 h1         1 QEU       0.054450
     29 H201        11.9850     3.4650   -14.8450 hc         1 QEU       0.045200
     30 H202        11.3580     3.5880   -13.2010 hc         1 QEU       0.045200
     31 H212        12.6610     1.5340   -12.5580 hc         1 QEU       0.044700
     32 H211        13.3360     1.4510   -14.1800 hc         1 QEU       0.044700
     33 H221        14.8820     2.4760   -12.4850 h1         1 QEU       0.033200
     34 H222        13.7230     3.7910   -12.2220 h1         1 QEU       0.033200
     35 H241         8.7400     2.8730   -16.9090 h1         1 QEU       0.054450
     36 H242        10.4770     2.9850   -16.6690 h1         1 QEU       0.054450
     37 H011         1.1590    10.2770   -16.2170 h1         1 QEU       0.048367
     38 H013         2.4600    10.4130   -15.0170 h1         1 QEU       0.048367
     39 H012         2.8020    10.6910   -16.7470 h1         1 QEU       0.048367
     40 H063         1.1050     5.2000   -17.0700 h1         1 QEU       0.038033
     41 H061         1.1830     6.5380   -15.9090 h1         1 QEU       0.038033
     42 H062         1.5400     6.8210   -17.6400 h1         1 QEU       0.038033
     43 H071         5.4580     5.1720   -16.1990 ha         1 QEU       0.127000
     44 H121         9.2190     9.4000   -14.8120 h5         1 QEU       0.050100
     45 H161         6.9020     4.7790   -13.7930 h1         1 QEU       0.067950
     46 H162         6.7240     3.5860   -15.0830 h1         1 QEU       0.067950
     47 H192        10.2950     1.3270   -13.4370 h1         1 QEU       0.049200
     48 H191        10.9510     1.1830   -15.0630 h1         1 QEU       0.049200
     49 H251        10.1900     5.1850   -15.5160 h1         1 QEU       0.067950
     50 H252         9.4920     5.2050   -17.1440 h1         1 QEU       0.067950
     51 H231        13.9310     4.3300   -14.4640 ho         1 QEU       0.464000
@<TRIPOS>BOND
     1     1     8 ar  
     2     1    13 ar  
     3     1    26 1   
     4     2    16 1   
     5     2    22 1   
     6     2    27 1   
     7     2    28 1   
     8     3     4 1   
     9     3    17 1   
    10     3    29 1   
    11     3    30 1   
    12     4     5 1   
    13     4    31 1   
    14     4    32 1   
    15     5    25 1   
    16     5    33 1   
    17     5    34 1   
    18     6    18 1   
    19     6    22 1   
    20     6    35 1   
    21     6    36 1   
    22     7    23 1   
    23     7    37 1   
    24     7    38 1   
    25     7    39 1   
    26     8     9 ar  
    27     8    23 1   
    28     9    11 ar  
    29     9    24 1   
    30    10    24 1   
    31    10    40 1   
    32    10    41 1   
    33    10    42 1   
    34    11    12 ar  
    35    11    43 1   
    36    12    13 ar  
    37    12    15 ar  
    38    13    19 ar  
    39    14    19 ar  
    40    14    20 ar  
    41    14    44 1   
    42    15    20 ar  
    43    15    21 1   
    44    16    21 1   
    45    16    45 1   
    46    16    46 1   
    47    17    22 1   
    48    17    47 1   
    49    17    48 1   
    50    18    21 1   
    51    18    49 1   
    52    18    50 1   
    53    25    51 1   
@<TRIPOS>SUBSTRUCTURE
     1 QEU         1 TEMP              0 ****  ****    0 ROOT
