@<TRIPOS>MOLECULE
QEU
   51    53     1     0     0
SMALL
abcg2


@<TRIPOS>ATOM
      1 C10          6.9370     8.1320   -15.3810 ca         1 QEU      -0.208000
      2 C17          7.5680     2.4470   -15.0320 c6         1 QEU       0.172300
      3 C20          9.7290     4.4990   -14.0690 c3         1 QEU      -0.116400
      4 C21         10.3530     5.2020   -12.8650 c3         1 QEU      -0.101400
      5 C22         10.1640     6.7140   -12.8530 c3         1 QEU       0.165600
      6 C24          9.6370     1.8460   -16.1270 c6         1 QEU       0.172300
      7 C01          5.1380     9.8780   -14.0950 c3         1 QEU       0.143900
      8 C03          5.5960     7.8440   -15.2500 ca         1 QEU       0.159100
      9 C04          5.0930     6.6380   -15.8090 ca         1 QEU       0.052100
     10 C06          3.2440     5.8520   -14.5700 c3         1 QEU       0.148900
     11 C07          5.9440     5.7430   -16.4020 ca         1 QEU      -0.055000
     12 C08          7.3330     5.9800   -16.4910 ca         1 QEU      -0.201000
     13 C09          7.8090     7.2420   -16.0380 ca         1 QEU       0.081000
     14 C12          9.8200     6.8630   -17.0140 ca         1 QEU       0.188900
     15 C14          8.3620     5.0830   -16.9800 ca         1 QEU       0.435900
     16 C16          7.2330     2.8910   -16.4660 c6         1 QEU       0.180800
     17 C19          9.7100     2.9730   -13.8900 c3         1 QEU       0.199800
     18 C25          9.5260     2.9500   -17.2120 c6         1 QEU       0.180800
     19 N11          9.0970     7.6630   -16.2590 nb         1 QEU      -0.257000
     20 N13          9.5240     5.6220   -17.3900 nb         1 QEU      -0.312000
     21 N15          8.2970     3.7350   -17.0030 nh         1 QEU      -0.760300
     22 N18          8.9910     2.1660   -14.8710 n3         1 QEU      -0.772600
     23 O02          4.6850     8.6470   -14.6640 os         1 QEU      -0.332100
     24 O05          3.7430     6.3930   -15.8040 os         1 QEU      -0.352100
     25 O23         10.8720     7.3860   -13.9000 oh         1 QEU      -0.686000
     26 H101         7.3500     9.0660   -15.0320 ha         1 QEU       0.140000
     27 H171         6.9580     1.5620   -14.8080 h1         1 QEU       0.054450
     28 H172         7.2700     3.2290   -14.3330 h1         1 QEU       0.054450
     29 H201        10.2700     4.7660   -14.9770 hc         1 QEU       0.045200
     30 H202         8.7040     4.8600   -14.1880 hc         1 QEU       0.045200
     31 H212         9.8990     4.8130   -11.9450 hc         1 QEU       0.044700
     32 H211        11.4230     4.9750   -12.8050 hc         1 QEU       0.044700
     33 H221        10.5410     7.1170   -11.9090 h1         1 QEU       0.033200
     34 H222         9.0970     6.9550   -12.9130 h1         1 QEU       0.033200
     35 H241         9.1980     0.9200   -16.5120 h1         1 QEU       0.054450
     36 H242        10.6940     1.6430   -15.9480 h1         1 QEU       0.054450
     37 H011         4.2560    10.3500   -13.6710 h1         1 QEU       0.048367
     38 H013         5.8750     9.6930   -13.3100 h1         1 QEU       0.048367
     39 H012         5.5720    10.5230   -14.8610 h1         1 QEU       0.048367
     40 H063         2.1720     5.7210   -14.7010 h1         1 QEU       0.038033
     41 H061         3.7130     4.8860   -14.3650 h1         1 QEU       0.038033
     42 H062         3.4330     6.5370   -13.7410 h1         1 QEU       0.038033
     43 H071         5.4850     4.8760   -16.8470 ha         1 QEU       0.127000
     44 H121        10.7900     7.2360   -17.3350 h5         1 QEU       0.050100
     45 H161         6.2680     3.3690   -16.4900 h1         1 QEU       0.067950
     46 H162         7.1660     2.0220   -17.1230 h1         1 QEU       0.067950
     47 H192         9.2700     2.7590   -12.9090 h1         1 QEU       0.049200
     48 H191        10.7370     2.6000   -13.8540 h1         1 QEU       0.049200
     49 H251        10.3700     3.6240   -17.1630 h1         1 QEU       0.067950
     50 H252         9.5090     2.4970   -18.2080 h1         1 QEU       0.067950
     51 H231        10.2650     7.5460   -14.6440 ho         1 QEU       0.464000
@<TRIPOS>BOND
     1     1     8 ar  
     2     1    13 ar  
     3     1    26 1   
     4     2    16 1   
     5     2    22 1   
     6     2    27 1   
     7     2    28 1   
     8     3     4 1   
     9     3    17 1   
    10     3    29 1   
    11     3    30 1   
    12     4     5 1   
    13     4    31 1   
    14     4    32 1   
    15     5    25 1   
    16     5    33 1   
    17     5    34 1   
    18     6    18 1   
    19     6    22 1   
    20     6    35 1   
    21     6    36 1   
    22     7    23 1   
    23     7    37 1   
    24     7    38 1   
    25     7    39 1   
    26     8     9 ar  
    27     8    23 1   
    28     9    11 ar  
    29     9    24 1   
    30    10    24 1   
    31    10    40 1   
    32    10    41 1   
    33    10    42 1   
    34    11    12 ar  
    35    11    43 1   
    36    12    13 ar  
    37    12    15 ar  
    38    13    19 ar  
    39    14    19 ar  
    40    14    20 ar  
    41    14    44 1   
    42    15    20 ar  
    43    15    21 1   
    44    16    21 1   
    45    16    45 1   
    46    16    46 1   
    47    17    22 1   
    48    17    47 1   
    49    17    48 1   
    50    18    21 1   
    51    18    49 1   
    52    18    50 1   
    53    25    51 1   
@<TRIPOS>SUBSTRUCTURE
     1 QEU         1 TEMP              0 ****  ****    0 ROOT
