@<TRIPOS>MOLECULE
QEV
   73    77     1     0     0
SMALL
No Charge or Current Charge


@<TRIPOS>ATOM
      1 C18         -4.4290    -2.4840    -0.0230 c          1 QEV       0.607100
      2 C17         -2.0210    -0.2970     0.1290 ca         1 QEV      -0.136000
      3 C16         -2.9570     0.0340     1.1320 cp         1 QEV       0.012000
      4 C15         -2.5740    -0.2250     2.4650 ca         1 QEV      -0.134000
      5 C22        -10.7900     4.5890    -0.4870 c3         1 QEV       0.169900
      6 C23         -0.0320    -2.7450    -1.1950 c3         1 QEV      -0.082400
      7 C24         -1.4700    -3.0330    -1.7050 c3         1 QEV      -0.072400
      8 C11          0.1940    -1.3100    -0.6370 c3         1 QEV       0.069400
      9 C34          7.9480     0.9430    -0.2970 ca         1 QEV       0.194000
     10 C33          9.3390     1.1520    -0.3820 ca         1 QEV       0.064000
     11 Cl1          9.9840     2.7100    -0.8970 cl         1 QEV      -0.150000
     12 C2          -5.1810    -0.0750    -0.1200 ca         1 QEV       0.007000
     13 C3          -4.3010     0.5850     0.7840 cp         1 QEV      -0.064000
     14 C4          -4.7250     1.8120     1.3420 ca         1 QEV      -0.056000
     15 C5          -5.9600     2.3840     0.9910 ca         1 QEV      -0.143000
     16 C6          -6.8070     1.7410     0.0630 ca         1 QEV       0.014000
     17 C7          -6.4030     0.5120    -0.4880 ca         1 QEV      -0.188000
     18 N8          -4.8230    -1.3280    -0.6780 ns         1 QEV      -0.184000
     19 N9          -8.0620     2.2650    -0.3470 ns         1 QEV      -0.142000
     20 C10         -0.8020    -0.9120     0.4680 ca         1 QEV       0.322300
     21 N12          1.5910    -1.1370    -0.2050 ns         1 QEV      -0.474900
     22 N13         -0.4560    -1.1700     1.7550 nb         1 QEV      -0.667000
     23 C14         -1.3300    -0.8210     2.7290 ca         1 QEV       0.335900
     24 O20         -8.3570     4.2920     0.7610 o          1 QEV      -0.512000
     25 O21         -9.9250     3.4560    -0.6930 os         1 QEV      -0.459100
     26 C25         -2.3600    -3.8110    -0.7000 c3         1 QEV      -0.074400
     27 C26         -3.8910    -3.6170    -0.9280 c3         1 QEV      -0.134700
     28 O27         -4.4930    -2.6070     1.1960 o          1 QEV      -0.572100
     29 C28         -4.6930    -4.9240    -0.7040 c3         1 QEV      -0.081100
     30 C29          2.6730    -0.9200    -1.0310 c          1 QEV       0.545600
     31 O30          2.5550    -0.8320    -2.2480 o          1 QEV      -0.616100
     32 C31          9.7270    -1.1310     0.3670 ca         1 QEV      -0.113000
     33 C32         10.2270     0.1150    -0.0510 ca         1 QEV      -0.067000
     34 C35          7.4410    -0.3100     0.1160 ca         1 QEV      -0.052200
     35 C36          8.3390    -1.3430     0.4520 ca         1 QEV      -0.073000
     36 N37          6.0670    -0.5360     0.2070 na         1 QEV      -0.093300
     37 C38          5.1940    -0.5900    -0.8560 cc         1 QEV      -0.085300
     38 C39          3.9630    -0.8030    -0.2530 cd         1 QEV       0.171500
     39 N40          4.1100    -0.8910     1.1400 nd         1 QEV      -0.663000
     40 C41          5.4030    -0.7300     1.3900 cc         1 QEV       0.416400
     41 H53         -2.2540    -0.0920    -0.9110 ha         1 QEV       0.122000
     42 H52         -3.2450     0.0050     3.2860 ha         1 QEV       0.131000
     43 H54        -11.0870     4.6690     0.5670 h1         1 QEV       0.051033
     44 H56        -10.2910     5.5220    -0.7800 h1         1 QEV       0.051033
     45 H55        -11.7020     4.4880    -1.0890 h1         1 QEV       0.051033
     46 H58          0.2480    -3.4860    -0.4350 hc         1 QEV       0.054200
     47 H57          0.6600    -2.8970    -2.0330 hc         1 QEV       0.054200
     48 H60         -1.9510    -2.0960    -2.0040 hc         1 QEV       0.037200
     49 H59         -1.4040    -3.6310    -2.6230 hc         1 QEV       0.037200
     50 H49          0.0320    -0.6120    -1.4690 h1         1 QEV       0.072700
     51 H44         -4.0760     2.3350     2.0420 ha         1 QEV       0.124000
     52 H45         -6.2340     3.3310     1.4450 ha         1 QEV       0.152000
     53 H46         -7.0510    -0.0010    -1.1960 ha         1 QEV       0.115000
     54 H47         -4.8040    -1.3650    -1.6890 hn         1 QEV       0.156000
     55 H48         -8.5570     1.6840    -1.0090 hn         1 QEV       0.165000
     56 H50          1.7930    -1.1770     0.7900 hn         1 QEV       0.342500
     57 H51         -1.0260    -1.0390     3.7520 h4         1 QEV       0.018100
     58 H62         -2.1020    -4.8740    -0.7810 hc         1 QEV       0.057200
     59 H61         -2.1050    -3.5230     0.3280 hc         1 QEV       0.057200
     60 H63         -4.0400    -3.3220    -1.9750 hc         1 QEV       0.049700
     61 H66         -5.7640    -4.7530    -0.8710 hc         1 QEV       0.044033
     62 H64         -4.3630    -5.7050    -1.3990 hc         1 QEV       0.044033
     63 H65         -4.5600    -5.2960     0.3190 hc         1 QEV       0.044033
     64 H67         10.4150    -1.9340     0.6240 ha         1 QEV       0.132000
     65 H68         11.3000     0.2770    -0.1160 ha         1 QEV       0.138000
     66 H69          7.9630    -2.3130     0.7720 ha         1 QEV       0.137000
     67 H70          5.8930    -0.7320     2.3570 h5         1 QEV       0.062100
     68 H71          6.6560    -0.4660    -2.4640 hc         1 QEV       0.064367
     69 H73          5.1530    -1.2740    -2.9060 hc         1 QEV       0.064367
     70 H72          5.1880     0.4900    -2.7260 hc         1 QEV       0.064367
     71 C42          5.5710    -0.4510    -2.3140 c3         1 QEV      -0.037800
     72 C19         -8.7380     3.4240    -0.0120 c          1 QEV       0.648100
     73 F43          7.0980     1.9510    -0.6050 f          1 QEV      -0.140000
@<TRIPOS>BOND
     1     1    18 1   
     2     1    27 1   
     3     1    28 2   
     4     2     3 ar  
     5     2    20 ar  
     6     2    41 1   
     7     3     4 ar  
     8     3    13 1   
     9     4    23 ar  
    10     4    42 1   
    11     5    25 1   
    12     5    43 1   
    13     5    44 1   
    14     5    45 1   
    15     6     7 1   
    16     6     8 1   
    17     6    46 1   
    18     6    47 1   
    19     7    26 1   
    20     7    48 1   
    21     7    49 1   
    22     8    20 1   
    23     8    21 1   
    24     8    50 1   
    25     9    10 ar  
    26     9    34 ar  
    27     9    73 1   
    28    10    11 1   
    29    10    33 ar  
    30    12    13 ar  
    31    12    17 ar  
    32    12    18 1   
    33    13    14 ar  
    34    14    15 ar  
    35    14    51 1   
    36    15    16 ar  
    37    15    52 1   
    38    16    17 ar  
    39    16    19 1   
    40    17    53 1   
    41    18    54 1   
    42    19    55 1   
    43    19    72 1   
    44    20    22 ar  
    45    21    30 1   
    46    21    56 1   
    47    22    23 ar  
    48    23    57 1   
    49    24    72 2   
    50    25    72 1   
    51    26    27 1   
    52    26    58 1   
    53    26    59 1   
    54    27    29 1   
    55    27    60 1   
    56    29    61 1   
    57    29    62 1   
    58    29    63 1   
    59    30    31 2   
    60    30    38 1   
    61    32    33 ar  
    62    32    35 ar  
    63    32    64 1   
    64    33    65 1   
    65    34    35 ar  
    66    34    36 1   
    67    35    66 1   
    68    36    37 1   
    69    36    40 1   
    70    37    38 2   
    71    37    71 1   
    72    38    39 1   
    73    39    40 2   
    74    40    67 1   
    75    68    71 1   
    76    69    71 1   
    77    70    71 1   
@<TRIPOS>SUBSTRUCTURE
     1 QEV         1 TEMP              0 ****  ****    0 ROOT
