@<TRIPOS>MOLECULE
QEV
   73    77     1     0     0
SMALL
abcg2


@<TRIPOS>ATOM
      1 C18         -4.5130    -2.4760     0.3010 c          1 QEV       0.607100
      2 C17         -1.7520    -0.6790    -0.2690 ca         1 QEV      -0.136000
      3 C16         -2.5430    -0.1330     0.7330 cp         1 QEV       0.012000
      4 C15         -2.0960    -0.2650     2.0420 ca         1 QEV      -0.134000
      5 C22         -9.7540     5.0030    -0.9540 c3         1 QEV       0.169900
      6 C23         -0.3390    -3.6140    -1.0880 c3         1 QEV      -0.082400
      7 C24         -1.8510    -3.7520    -1.3110 c3         1 QEV      -0.072400
      8 C11          0.1350    -2.1560    -1.0070 c3         1 QEV       0.069400
      9 C34          7.3010     0.7970     0.9100 ca         1 QEV       0.194000
     10 C33          8.5550     1.3690     1.0430 ca         1 QEV       0.064000
     11 CL1          8.8100     2.5530     2.2570 cl         1 QEV      -0.150000
     12 C2          -4.8080    -0.1500    -0.3210 ca         1 QEV       0.007000
     13 C3          -3.8160     0.5290     0.3960 cp         1 QEV      -0.064000
     14 C4          -4.0660     1.8480     0.7520 ca         1 QEV      -0.056000
     15 C5          -5.2280     2.5110     0.3870 ca         1 QEV      -0.143000
     16 C6          -6.1950     1.8350    -0.3560 ca         1 QEV       0.014000
     17 C7          -5.9740     0.4970    -0.6860 ca         1 QEV      -0.188000
     18 N8          -4.6420    -1.5120    -0.6560 ns         1 QEV      -0.184000
     19 N9          -7.3940     2.3940    -0.7890 ns         1 QEV      -0.142000
     20 C10         -0.6190    -1.4040     0.0660 ca         1 QEV       0.322300
     21 N12          1.5590    -2.1190    -0.8080 ns         1 QEV      -0.474900
     22 N13         -0.2060    -1.5430     1.3180 nb         1 QEV      -0.667000
     23 C14         -0.9180    -0.9610     2.2720 ca         1 QEV       0.335900
     24 O20         -7.3490     4.5050     0.1070 o          1 QEV      -0.512000
     25 O21         -9.0810     3.7600    -1.1210 os         1 QEV      -0.459100
     26 C25         -2.6400    -4.0780    -0.0450 c3         1 QEV      -0.074400
     27 C26         -4.1650    -3.8720    -0.1900 c3         1 QEV      -0.134700
     28 O27         -4.6280    -2.2190     1.4800 o          1 QEV      -0.572100
     29 C28         -4.9520    -4.9060     0.6060 c3         1 QEV      -0.081100
     30 C29          2.2630    -0.9850    -1.0090 c          1 QEV       0.545600
     31 O30          1.7790     0.0230    -1.4980 o          1 QEV      -0.616100
     32 C31          9.3470     0.0080    -0.7660 ca         1 QEV      -0.113000
     33 C32          9.5820     0.9690     0.2030 ca         1 QEV      -0.067000
     34 C35          7.0560    -0.1580    -0.0660 ca         1 QEV      -0.052200
     35 C36          8.0870    -0.5510    -0.9070 ca         1 QEV      -0.073000
     36 N37          5.7720    -0.7250    -0.1810 na         1 QEV      -0.093300
     37 C38          4.6500    -0.1200    -0.6930 cc         1 QEV      -0.085300
     38 C39          3.6770    -1.0820    -0.6010 cd         1 QEV       0.171500
     39 N40          4.1800    -2.2320    -0.0510 nd         1 QEV      -0.663000
     40 C41          5.4280    -1.9930     0.1900 cc         1 QEV       0.416400
     41 H53         -2.0210    -0.5500    -1.3100 ha         1 QEV       0.122000
     42 H52         -2.6640     0.1350     2.8710 ha         1 QEV       0.131000
     43 H54         -9.9570     5.2120     0.0960 h1         1 QEV       0.051033
     44 H56         -9.1840     5.8290    -1.3790 h1         1 QEV       0.051033
     45 H55        -10.6940     4.9040    -1.4880 h1         1 QEV       0.051033
     46 H58         -0.0450    -4.1400    -0.1740 hc         1 QEV       0.054200
     47 H57          0.2070    -4.0880    -1.9070 hc         1 QEV       0.054200
     48 H60         -2.2370    -2.8370    -1.7700 hc         1 QEV       0.037200
     49 H59         -2.0370    -4.5410    -2.0440 hc         1 QEV       0.037200
     50 H49         -0.0850    -1.6850    -1.9690 h1         1 QEV       0.072700
     51 H44         -3.3170     2.3930     1.3120 ha         1 QEV       0.124000
     52 H45         -5.3630     3.5390     0.6770 ha         1 QEV       0.152000
     53 H46         -6.7330    -0.0630    -1.2200 ha         1 QEV       0.115000
     54 H47         -4.6510    -1.7750    -1.6270 hn         1 QEV       0.156000
     55 H48         -7.9820     1.7940    -1.3430 hn         1 QEV       0.165000
     56 H50          1.9990    -2.8440    -0.2630 hn         1 QEV       0.342500
     57 H51         -0.5470    -1.0750     3.2850 h4         1 QEV       0.018100
     58 H62         -2.4520    -5.1220     0.2200 hc         1 QEV       0.057200
     59 H61         -2.2750    -3.4960     0.8040 hc         1 QEV       0.057200
     60 H63         -4.4300    -3.9740    -1.2500 hc         1 QEV       0.049700
     61 H66         -6.0280    -4.7660     0.5000 hc         1 QEV       0.044033
     62 H64         -4.7110    -5.9100     0.2580 hc         1 QEV       0.044033
     63 H65         -4.7110    -4.8460     1.6660 hc         1 QEV       0.044033
     64 H67         10.1510    -0.3000    -1.4200 ha         1 QEV       0.132000
     65 H68         10.5600     1.4160     0.3150 ha         1 QEV       0.138000
     66 H69          7.8900    -1.2910    -1.6710 ha         1 QEV       0.137000
     67 H70          6.1400    -2.6700     0.6370 h5         1 QEV       0.062100
     68 H71          5.4560     1.4210    -1.9400 hc         1 QEV       0.064367
     69 H73          3.7080     1.4850    -1.6870 hc         1 QEV       0.064367
     70 H72          4.8010     1.9960    -0.4080 hc         1 QEV       0.064367
     71 C42          4.6580     1.2700    -1.2100 c3         1 QEV      -0.037800
     72 C19         -7.8880     3.6410    -0.5350 c          1 QEV       0.648100
     73 F43          6.3220     1.1630     1.7240 f          1 QEV      -0.140000
@<TRIPOS>BOND
     1     1    18 1   
     2     1    27 1   
     3     1    28 2   
     4     2     3 ar  
     5     2    20 ar  
     6     2    41 1   
     7     3     4 ar  
     8     3    13 1   
     9     4    23 ar  
    10     4    42 1   
    11     5    25 1   
    12     5    43 1   
    13     5    44 1   
    14     5    45 1   
    15     6     7 1   
    16     6     8 1   
    17     6    46 1   
    18     6    47 1   
    19     7    26 1   
    20     7    48 1   
    21     7    49 1   
    22     8    20 1   
    23     8    21 1   
    24     8    50 1   
    25     9    10 ar  
    26     9    34 ar  
    27     9    73 1   
    28    10    11 1   
    29    10    33 ar  
    30    12    13 ar  
    31    12    17 ar  
    32    12    18 1   
    33    13    14 ar  
    34    14    15 ar  
    35    14    51 1   
    36    15    16 ar  
    37    15    52 1   
    38    16    17 ar  
    39    16    19 1   
    40    17    53 1   
    41    18    54 1   
    42    19    55 1   
    43    19    72 1   
    44    20    22 ar  
    45    21    30 1   
    46    21    56 1   
    47    22    23 ar  
    48    23    57 1   
    49    24    72 2   
    50    25    72 1   
    51    26    27 1   
    52    26    58 1   
    53    26    59 1   
    54    27    29 1   
    55    27    60 1   
    56    29    61 1   
    57    29    62 1   
    58    29    63 1   
    59    30    31 2   
    60    30    38 1   
    61    32    33 ar  
    62    32    35 ar  
    63    32    64 1   
    64    33    65 1   
    65    34    35 ar  
    66    34    36 1   
    67    35    66 1   
    68    36    37 1   
    69    36    40 1   
    70    37    38 2   
    71    37    71 1   
    72    38    39 1   
    73    39    40 2   
    74    40    67 1   
    75    68    71 1   
    76    69    71 1   
    77    70    71 1   
@<TRIPOS>SUBSTRUCTURE
     1 QEV         1 TEMP              0 ****  ****    0 ROOT
