@<TRIPOS>MOLECULE
QEW
   44    47     1     0     0
SMALL
No Charge or Current Charge


@<TRIPOS>ATOM
      1 N1         -19.9830    20.6380    -5.4530 nb         1 QEW      -0.672000
      2 N3         -12.2210    12.0160    -1.7970 ns         1 QEW      -0.413400
      3 C4         -18.4510    18.7540    -5.3860 ca         1 QEW      -0.130000
      4 C5         -19.3640    19.6390    -4.7790 ca         1 QEW       0.372900
      5 C6         -17.2600    18.0450    -7.3880 ca         1 QEW      -0.216000
      6 C7         -16.6340    17.0150    -6.6500 ca         1 QEW       0.173100
      7 C8         -16.9060    16.8450    -5.2610 cp         1 QEW      -0.054000
      8 C10        -16.2610    15.7720    -4.4400 cp         1 QEW      -0.035000
      9 C13        -15.0580    13.7510    -2.8420 ca         1 QEW       0.130400
     10 C15        -14.8610    15.5460    -4.4810 ca         1 QEW      -0.032000
     11 C17        -10.8670    11.9100    -1.9450 c          1 QEW       0.663100
     12 C20        -15.4210    16.1800    -8.6380 c3         1 QEW       0.146900
     13 C1         -19.7000    20.7790    -6.7690 ca         1 QEW       0.332900
     14 C2         -18.8030    19.9430    -7.4530 ca         1 QEW      -0.161000
     15 C3         -18.1630    18.9090    -6.7520 ca         1 QEW       0.032000
     16 C9         -17.8290    17.7300    -4.6490 ca         1 QEW      -0.044000
     17 O1         -15.7630    16.1190    -7.2420 os         1 QEW      -0.340100
     18 C11        -17.0390    14.9630    -3.5670 ca         1 QEW      -0.095000
     19 C12        -16.4440    13.9590    -2.7770 ca         1 QEW      -0.073000
     20 C14        -14.2980    14.5390    -3.6830 ca         1 QEW      -0.220000
     21 N2         -14.3890    12.7840    -2.0970 nc         1 QEW      -0.617100
     22 C16        -13.0910    12.8780    -2.4120 cd         1 QEW       0.471800
     23 S1         -12.5980    14.1210    -3.6080 ss         1 QEW       0.110800
     24 N4         -10.3200    10.9270    -1.1580 ns         1 QEW      -0.492900
     25 C18         -8.8710    10.6040    -1.1140 c3         1 QEW      -0.011000
     26 C19         -8.1040    11.4620    -0.0850 c          1 QEW       0.543900
     27 O2          -8.6400    12.1250     0.8000 o          1 QEW      -0.497100
     28 O3         -10.1920    12.6020    -2.6870 o          1 QEW      -0.610100
     29 H1         -12.6290    11.3680    -1.1440 hn         1 QEW       0.336500
     30 H2         -19.6100    19.5480    -3.7210 h4         1 QEW       0.018100
     31 H3         -17.0600    18.1810    -8.4460 ha         1 QEW       0.123000
     32 H4         -14.2250    16.1540    -5.1200 ha         1 QEW       0.129000
     33 H5         -14.7170    15.3790    -8.8920 h1         1 QEW       0.045700
     34 H6         -16.3150    16.0580    -9.2640 h1         1 QEW       0.045700
     35 H7         -14.9470    17.1390    -8.8820 h1         1 QEW       0.045700
     36 H8         -20.2100    21.5890    -7.2900 h4         1 QEW       0.018100
     37 H9         -18.6140    20.1030    -8.5110 ha         1 QEW       0.121000
     38 H10        -18.0500    17.6220    -3.5890 ha         1 QEW       0.124000
     39 H11        -18.1150    15.1110    -3.5110 ha         1 QEW       0.117000
     40 H12        -17.0550    13.3470    -2.1190 ha         1 QEW       0.130000
     41 H13        -10.9470    10.4050    -0.5560 hn         1 QEW       0.321500
     42 H14         -8.7320     9.5500    -0.8450 h1         1 QEW       0.084200
     43 H15         -8.4160    10.7680    -2.0990 h1         1 QEW       0.084200
     44 H16         -6.9970    11.4450    -0.1930 h4         1 QEW      -0.002800
@<TRIPOS>BOND
     1     1     4 ar  
     2     1    13 ar  
     3     2    11 1   
     4     2    22 1   
     5     2    29 1   
     6     3     4 ar  
     7     3    15 ar  
     8     3    16 ar  
     9     4    30 1   
    10     5     6 ar  
    11     5    15 ar  
    12     5    31 1   
    13     6     7 ar  
    14     6    17 1   
    15     7     8 1   
    16     7    16 ar  
    17     8    10 ar  
    18     8    18 ar  
    19     9    19 ar  
    20     9    20 ar  
    21     9    21 1   
    22    10    20 ar  
    23    10    32 1   
    24    11    24 1   
    25    11    28 2   
    26    12    17 1   
    27    12    33 1   
    28    12    34 1   
    29    12    35 1   
    30    13    14 ar  
    31    13    36 1   
    32    14    15 ar  
    33    14    37 1   
    34    16    38 1   
    35    18    19 ar  
    36    18    39 1   
    37    19    40 1   
    38    20    23 1   
    39    21    22 2   
    40    22    23 1   
    41    24    25 1   
    42    24    41 1   
    43    25    26 1   
    44    25    42 1   
    45    25    43 1   
    46    26    27 2   
    47    26    44 1   
@<TRIPOS>SUBSTRUCTURE
     1 QEW         1 TEMP              0 ****  ****    0 ROOT
