@<TRIPOS>MOLECULE
QEW
   44    47     1     0     0
SMALL
abcg2


@<TRIPOS>ATOM
      1 N1         -19.7490    20.6820    -5.3470 nb         1 QEW      -0.672000
      2 N3         -12.3460    11.8550    -1.7900 ns         1 QEW      -0.413400
      3 C4         -18.3090    18.7470    -5.3310 ca         1 QEW      -0.130000
      4 C5         -19.1750    19.6790    -4.7160 ca         1 QEW       0.372900
      5 C6         -17.1730    17.9830    -7.3540 ca         1 QEW      -0.216000
      6 C7         -16.6020    16.9520    -6.6400 ca         1 QEW       0.173100
      7 C8         -16.8610    16.7910    -5.2360 cp         1 QEW      -0.054000
      8 C10        -16.2530    15.6860    -4.4590 cp         1 QEW      -0.035000
      9 C13        -15.1650    13.6310    -2.8890 ca         1 QEW       0.130400
     10 C15        -14.8750    15.4630    -4.4810 ca         1 QEW      -0.032000
     11 C17        -10.9690    11.8670    -1.9400 c          1 QEW       0.663100
     12 C20        -15.4960    16.1050    -8.5830 c3         1 QEW       0.146900
     13 C1         -19.4830    20.8200    -6.6740 ca         1 QEW       0.332900
     14 C2         -18.6590    19.9820    -7.3790 ca         1 QEW      -0.161000
     15 C3         -18.0350    18.9010    -6.7150 ca         1 QEW       0.032000
     16 C9         -17.7070    17.6830    -4.6230 ca         1 QEW      -0.044000
     17 O1         -15.7960    16.0180    -7.1900 os         1 QEW      -0.340100
     18 C11        -17.0680    14.8750    -3.6490 ca         1 QEW      -0.095000
     19 C12        -16.5430    13.8550    -2.8720 ca         1 QEW      -0.073000
     20 C14        -14.3490    14.4480    -3.6970 ca         1 QEW      -0.220000
     21 N2         -14.4910    12.6620    -2.1680 nc         1 QEW      -0.617100
     22 C16        -13.2140    12.7250    -2.3950 cd         1 QEW       0.471800
     23 S1         -12.6750    13.9710    -3.5180 ss         1 QEW       0.110800
     24 N4         -10.3200    10.8840    -1.2720 ns         1 QEW      -0.492900
     25 C18         -8.8830    10.8790    -1.1940 c3         1 QEW      -0.011000
     26 C19         -8.3050    11.8460    -0.1880 c          1 QEW       0.543900
     27 O2          -8.9590    12.5830     0.5090 o          1 QEW      -0.497100
     28 O3         -10.4050    12.6950    -2.6500 o          1 QEW      -0.610100
     29 H1         -12.7790    11.1750    -1.1800 hn         1 QEW       0.336500
     30 H2         -19.3900    19.5720    -3.6560 h4         1 QEW       0.018100
     31 H3         -16.9850    18.1000    -8.4110 ha         1 QEW       0.123000
     32 H4         -14.2310    16.0800    -5.0920 ha         1 QEW       0.129000
     33 H5         -14.8390    15.2660    -8.7950 h1         1 QEW       0.045700
     34 H6         -16.4050    16.0230    -9.1830 h1         1 QEW       0.045700
     35 H7         -14.9860    17.0420    -8.8140 h1         1 QEW       0.045700
     36 H8         -19.9690    21.6540    -7.1680 h4         1 QEW       0.018100
     37 H9         -18.4850    20.1450    -8.4350 ha         1 QEW       0.121000
     38 H10        -17.9080    17.5810    -3.5640 ha         1 QEW       0.124000
     39 H11        -18.1360    15.0470    -3.6470 ha         1 QEW       0.117000
     40 H12        -17.1840    13.2340    -2.2610 ha         1 QEW       0.130000
     41 H13        -10.8280    10.3100    -0.6160 hn         1 QEW       0.321500
     42 H14         -8.5330     9.8760    -0.9340 h1         1 QEW       0.084200
     43 H15         -8.4460    11.1180    -2.1670 h1         1 QEW       0.084200
     44 H16         -7.2000    11.8320    -0.1310 h4         1 QEW      -0.002800
@<TRIPOS>BOND
     1     1     4 ar  
     2     1    13 ar  
     3     2    11 1   
     4     2    22 1   
     5     2    29 1   
     6     3     4 ar  
     7     3    15 ar  
     8     3    16 ar  
     9     4    30 1   
    10     5     6 ar  
    11     5    15 ar  
    12     5    31 1   
    13     6     7 ar  
    14     6    17 1   
    15     7     8 1   
    16     7    16 ar  
    17     8    10 ar  
    18     8    18 ar  
    19     9    19 ar  
    20     9    20 ar  
    21     9    21 1   
    22    10    20 ar  
    23    10    32 1   
    24    11    24 1   
    25    11    28 2   
    26    12    17 1   
    27    12    33 1   
    28    12    34 1   
    29    12    35 1   
    30    13    14 ar  
    31    13    36 1   
    32    14    15 ar  
    33    14    37 1   
    34    16    38 1   
    35    18    19 ar  
    36    18    39 1   
    37    19    40 1   
    38    20    23 1   
    39    21    22 2   
    40    22    23 1   
    41    24    25 1   
    42    24    41 1   
    43    25    26 1   
    44    25    42 1   
    45    25    43 1   
    46    26    27 2   
    47    26    44 1   
@<TRIPOS>SUBSTRUCTURE
     1 QEW         1 TEMP              0 ****  ****    0 ROOT
