@<TRIPOS>MOLECULE
QEX
   37    39     1     0     0
SMALL
No Charge or Current Charge


@<TRIPOS>ATOM
      1 N1         -15.7220     6.5180    27.5410 nb         1 QEX      -0.643000
      2 C4         -21.7570     4.4460    31.5490 ca         1 QEX      -0.093000
      3 C5         -21.7220     4.9780    30.2470 ca         1 QEX      -0.071300
      4 C6         -21.1550     6.3730    29.9990 c3         1 QEX      -0.106100
      5 C7         -19.6630     6.2930    29.6540 c          1 QEX       0.598100
      6 C8         -18.1580     6.3190    27.5710 ca         1 QEX      -0.071000
      7 C10        -15.7460     6.3010    26.2070 ca         1 QEX       0.342900
      8 C13        -18.0880     5.6630    23.3810 ca         1 QEX      -0.111000
      9 C15        -19.3640     5.8840    25.4450 ca         1 QEX      -0.111000
     10 C17        -22.2040     4.2080    29.1700 ca         1 QEX      -0.096000
     11 O          -18.8060     6.1640    30.5200 o          1 QEX      -0.559100
     12 C3         -22.2700     3.1570    31.7720 ca         1 QEX      -0.105000
     13 C2         -22.7500     2.3940    30.6950 ca         1 QEX      -0.103000
     14 C1         -22.7200     2.9160    29.3890 ca         1 QEX      -0.074300
     15 C          -23.2340     2.0900    28.2190 c3         1 QEX      -0.046800
     16 N          -19.3880     6.3440    28.2940 ns         1 QEX      -0.162000
     17 C16        -18.1700     6.0990    26.1710 ca         1 QEX      -0.032000
     18 C14        -19.3190     5.6680    24.0570 ca         1 QEX      -0.090000
     19 C12        -16.8960     5.8730    24.0930 ca         1 QEX      -0.079000
     20 C11        -16.9350     6.0900    25.4840 ca         1 QEX      -0.085000
     21 C9         -16.9040     6.5260    28.2010 ca         1 QEX       0.319900
     22 H2         -21.2780     6.9870    30.8990 hc         1 QEX       0.063700
     23 H3         -21.7030     6.8330    29.1680 hc         1 QEX       0.063700
     24 H4         -14.7800     6.2990    25.7040 h4         1 QEX       0.021100
     25 H5         -18.0580     5.4950    22.3070 ha         1 QEX       0.118000
     26 H6         -20.3320     5.8790    25.9390 ha         1 QEX       0.109000
     27 H7         -22.1760     4.6110    28.1600 ha         1 QEX       0.108000
     28 H8         -22.2940     2.7490    32.7810 ha         1 QEX       0.114000
     29 H9         -23.1430     1.3960    30.8760 ha         1 QEX       0.111000
     30 H10        -22.4190     1.5230    27.7550 hc         1 QEX       0.042700
     31 H11        -24.0000     1.3740    28.5400 hc         1 QEX       0.042700
     32 H12        -23.6820     2.7270    27.4470 hc         1 QEX       0.042700
     33 H13        -20.2090     6.4150    27.7080 hn         1 QEX       0.150000
     34 H14        -20.2420     5.5030    23.5040 ha         1 QEX       0.115000
     35 H15        -15.9450     5.8670    23.5640 ha         1 QEX       0.119000
     36 H16        -16.8270     6.7260    29.2670 h4         1 QEX       0.043100
     37 H1         -21.3840     5.0280    32.3890 ha         1 QEX       0.111000
@<TRIPOS>BOND
     1     1     7 ar  
     2     1    21 ar  
     3     2     3 ar  
     4     2    12 ar  
     5     2    37 1   
     6     3     4 1   
     7     3    10 ar  
     8     4     5 1   
     9     4    22 1   
    10     4    23 1   
    11     5    11 2   
    12     5    16 1   
    13     6    16 1   
    14     6    17 ar  
    15     6    21 ar  
    16     7    20 ar  
    17     7    24 1   
    18     8    18 ar  
    19     8    19 ar  
    20     8    25 1   
    21     9    17 ar  
    22     9    18 ar  
    23     9    26 1   
    24    10    14 ar  
    25    10    27 1   
    26    12    13 ar  
    27    12    28 1   
    28    13    14 ar  
    29    13    29 1   
    30    14    15 1   
    31    15    30 1   
    32    15    31 1   
    33    15    32 1   
    34    16    33 1   
    35    17    20 ar  
    36    18    34 1   
    37    19    20 ar  
    38    19    35 1   
    39    21    36 1   
@<TRIPOS>SUBSTRUCTURE
     1 QEX         1 TEMP              0 ****  ****    0 ROOT
