@<TRIPOS>MOLECULE
QEX
   37    39     1     0     0
SMALL
abcg2


@<TRIPOS>ATOM
      1 N1         -16.1160     4.5370    26.5440 nb         1 QEX      -0.643000
      2 C4         -22.2800     5.1500    30.9330 ca         1 QEX      -0.093000
      3 C5         -22.0950     4.4610    29.7370 ca         1 QEX      -0.071300
      4 C6         -21.5940     5.1690    28.5090 c3         1 QEX      -0.106100
      5 C7         -20.0870     5.0340    28.3060 c          1 QEX       0.598100
      6 C8         -18.3540     5.4230    26.5800 ca         1 QEX      -0.071000
      7 C10        -15.7590     5.4740    25.6970 ca         1 QEX       0.342900
      8 C13        -17.0960     8.4200    23.8640 ca         1 QEX      -0.111000
      9 C15        -18.8660     7.4740    25.2230 ca         1 QEX      -0.111000
     10 C17        -22.3650     3.0930    29.6970 ca         1 QEX      -0.096000
     11 O          -19.3170     4.7140    29.1980 o          1 QEX      -0.559100
     12 C3         -22.7260     4.4770    32.0660 ca         1 QEX      -0.105000
     13 C2         -22.9880     3.1130    32.0110 ca         1 QEX      -0.103000
     14 C1         -22.8090     2.4010    30.8230 ca         1 QEX      -0.074300
     15 C          -23.0670     0.9190    30.7650 c3         1 QEX      -0.046800
     16 N          -19.6810     5.3440    27.0390 ns         1 QEX      -0.162000
     17 C16        -17.9880     6.4600    25.6740 ca         1 QEX      -0.032000
     18 C14        -18.4260     8.4270    24.3380 ca         1 QEX      -0.090000
     19 C12        -16.2190     7.4600    24.2980 ca         1 QEX      -0.079000
     20 C11        -16.6420     6.4670    25.2110 ca         1 QEX      -0.085000
     21 C9         -17.4020     4.5080    26.9700 ca         1 QEX       0.319900
     22 H2         -21.8040     6.2410    28.5760 hc         1 QEX       0.063700
     23 H3         -22.1040     4.8030    27.6150 hc         1 QEX       0.063700
     24 H4         -14.7280     5.4760    25.3560 h4         1 QEX       0.021100
     25 H5         -16.7730     9.1810    23.1650 ha         1 QEX       0.118000
     26 H6         -19.8850     7.5140    25.5840 ha         1 QEX       0.109000
     27 H7         -22.2310     2.5550    28.7640 ha         1 QEX       0.108000
     28 H8         -22.8750     5.0190    32.9920 ha         1 QEX       0.114000
     29 H9         -23.3420     2.5950    32.8950 ha         1 QEX       0.111000
     30 H10        -22.1760     0.3580    31.0640 hc         1 QEX       0.042700
     31 H11        -23.8740     0.6310    31.4400 hc         1 QEX       0.042700
     32 H12        -23.3290     0.6020    29.7550 hc         1 QEX       0.042700
     33 H13        -20.4020     5.6400    26.3980 hn         1 QEX       0.150000
     34 H14        -19.1060     9.2000    24.0020 ha         1 QEX       0.115000
     35 H15        -15.1930     7.4480    23.9530 ha         1 QEX       0.119000
     36 H16        -17.6650     3.7130    27.6520 h4         1 QEX       0.043100
     37 H1         -22.0790     6.2140    30.9760 ha         1 QEX       0.111000
@<TRIPOS>BOND
     1     1     7 ar  
     2     1    21 ar  
     3     2     3 ar  
     4     2    12 ar  
     5     2    37 1   
     6     3     4 1   
     7     3    10 ar  
     8     4     5 1   
     9     4    22 1   
    10     4    23 1   
    11     5    11 2   
    12     5    16 1   
    13     6    16 1   
    14     6    17 ar  
    15     6    21 ar  
    16     7    20 ar  
    17     7    24 1   
    18     8    18 ar  
    19     8    19 ar  
    20     8    25 1   
    21     9    17 ar  
    22     9    18 ar  
    23     9    26 1   
    24    10    14 ar  
    25    10    27 1   
    26    12    13 ar  
    27    12    28 1   
    28    13    14 ar  
    29    13    29 1   
    30    14    15 1   
    31    15    30 1   
    32    15    31 1   
    33    15    32 1   
    34    16    33 1   
    35    17    20 ar  
    36    18    34 1   
    37    19    20 ar  
    38    19    35 1   
    39    21    36 1   
@<TRIPOS>SUBSTRUCTURE
     1 QEX         1 TEMP              0 ****  ****    0 ROOT
