@<TRIPOS>MOLECULE
QEY
   72    76     1     0     0
SMALL
No Charge or Current Charge


@<TRIPOS>ATOM
      1 C18         -4.3720    -2.5620    -0.1530 c          1 QEY       0.604100
      2 C17         -2.2050    -0.1530     0.1480 ca         1 QEY      -0.137000
      3 C16         -3.2120     0.0640     1.1120 cp         1 QEY       0.015000
      4 C15         -2.8620    -0.1810     2.4570 ca         1 QEY      -0.134000
      5 C22        -11.3840     3.8530    -0.7800 c3         1 QEY       0.171900
      6 C23          0.0760    -2.3590    -1.1280 c3         1 QEY      -0.083400
      7 C24         -1.3020    -2.7760    -1.7080 c3         1 QEY      -0.071400
      8 C11          0.1340    -0.9230    -0.5300 c3         1 QEY       0.071400
      9 C34          8.1150    -0.2240     0.1340 ca         1 QEY       0.201000
     10 C33          9.4830     0.1150     0.1270 ca         1 QEY       0.062000
     11 Cl1         10.6890    -1.0250    -0.4690 cl         1 QEY      -0.158000
     12 C2          -5.3570    -0.2380    -0.2420 ca         1 QEY       0.006000
     13 C3          -4.5880     0.4860     0.7130 cp         1 QEY      -0.062000
     14 C4          -5.1570     1.6520     1.2730 ca         1 QEY      -0.056000
     15 C5          -6.4270     2.1060     0.8760 ca         1 QEY      -0.142000
     16 C6          -7.1630     1.4030    -0.1010 ca         1 QEY       0.014000
     17 C7          -6.6140     0.2330    -0.6550 ca         1 QEY      -0.189000
     18 N8          -4.8510    -1.4370    -0.8050 ns         1 QEY      -0.178000
     19 N9          -8.4460     1.8090    -0.5580 ns         1 QEY      -0.139000
     20 C10         -0.9460    -0.6500     0.5320 ca         1 QEY       0.328300
     21 N12          1.4840    -0.6300    -0.0220 ns         1 QEY      -0.480900
     22 N13         -0.6310    -0.8940     1.8300 nb         1 QEY      -0.669000
     23 C14         -1.5770    -0.6540     2.7680 ca         1 QEY       0.337900
     24 O20         -8.9900     3.7710     0.5720 o          1 QEY      -0.518000
     25 O21        -10.4020     2.8160    -0.9670 os         1 QEY      -0.459100
     26 C25         -2.1530    -3.6610    -0.7590 c3         1 QEY      -0.074400
     27 C26         -3.6840    -3.6160    -1.0540 c3         1 QEY      -0.133700
     28 O27         -4.4750    -2.7170     1.0590 o          1 QEY      -0.575100
     29 C28         -4.3600    -5.0000    -0.8900 c3         1 QEY      -0.080100
     30 C29          2.5670    -0.2770    -0.7890 c          1 QEY       0.668700
     31 O30          2.5010    -0.1580    -2.0040 o          1 QEY      -0.651100
     32 C31          8.9480     2.2890     1.0830 ca         1 QEY      -0.117000
     33 C32          9.8980     1.3710     0.6000 ca         1 QEY      -0.069000
     34 C35          7.1580     0.6960     0.6130 ca         1 QEY      -0.033200
     35 C36          7.5830     1.9530     1.0910 ca         1 QEY      -0.075000
     36 N37          5.8030     0.3700     0.6270 na         1 QEY       0.160000
     37 C38          4.9900     0.3040    -0.5080 cc         1 QEY       0.334000
     38 C39          3.7860    -0.0620     0.0000 cd         1 QEY      -0.361600
     39 C40          3.9580    -0.1870     1.4040 cd         1 QEY       0.308900
     40 N41          5.1880     0.0720     1.8190 nc         1 QEY      -0.503800
     41 H53         -2.4120     0.0490    -0.8980 ha         1 QEY       0.121000
     42 H52         -3.5880    -0.0350     3.2510 ha         1 QEY       0.130000
     43 H54        -12.2540     3.6760    -1.4250 h1         1 QEY       0.051367
     44 H55        -11.7330     3.8800     0.2600 h1         1 QEY       0.051367
     45 H56        -10.9690     4.8370    -1.0330 h1         1 QEY       0.051367
     46 H57          0.3950    -3.0870    -0.3700 hc         1 QEY       0.052200
     47 H58          0.8160    -2.4210    -1.9350 hc         1 QEY       0.052200
     48 H59         -1.8610    -1.8850    -2.0130 hc         1 QEY       0.038700
     49 H60         -1.1360    -3.3440    -2.6330 hc         1 QEY       0.038700
     50 H49         -0.0550    -0.2230    -1.3550 h1         1 QEY       0.072700
     51 H44         -4.5950     2.2210     2.0110 ha         1 QEY       0.124000
     52 H45         -6.8130     3.0110     1.3340 ha         1 QEY       0.152000
     53 H46         -7.1760    -0.3260    -1.4010 ha         1 QEY       0.115000
     54 H47         -4.7860    -1.4490    -1.8140 hn         1 QEY       0.155000
     55 H48         -8.8510     1.1960    -1.2520 hn         1 QEY       0.166000
     56 H50          1.6230    -0.6870     0.9780 hn         1 QEY       0.317500
     57 H51         -1.2980    -0.8590     3.8010 h4         1 QEY       0.018100
     58 H61         -1.7870    -4.6920    -0.8480 hc         1 QEY       0.057200
     59 H62         -1.9730    -3.3730     0.2840 hc         1 QEY       0.057200
     60 H63         -3.8160    -3.3130    -2.1010 hc         1 QEY       0.048700
     61 H65         -5.4340    -4.9330    -1.1020 hc         1 QEY       0.044700
     62 H66         -3.9230    -5.7290    -1.5830 hc         1 QEY       0.044700
     63 H64         -4.2350    -5.3800     0.1320 hc         1 QEY       0.044700
     64 H67          9.2700     3.2610     1.4510 ha         1 QEY       0.131000
     65 H68         10.9540     1.6320     0.5950 ha         1 QEY       0.136000
     66 H69          6.8530     2.6670     1.4670 ha         1 QEY       0.142000
     67 H70          3.2150    -0.4640     2.1410 h4         1 QEY       0.036100
     68 H71          6.3680     0.6630    -2.0230 hn         1 QEY       0.491000
     69 H72          4.7240     0.3910    -2.5460 hn         1 QEY       0.491000
     70 N42          5.3810     0.5830    -1.7890 nv         1 QEY      -1.070000
     71 C19         -9.2490     2.8870    -0.2340 c          1 QEY       0.647100
     72 F43          7.7220    -1.4400    -0.3170 f          1 QEY      -0.139000
@<TRIPOS>BOND
     1     1    18 1   
     2     1    27 1   
     3     1    28 2   
     4     2     3 ar  
     5     2    20 ar  
     6     2    41 1   
     7     3     4 ar  
     8     3    13 1   
     9     4    23 ar  
    10     4    42 1   
    11     5    25 1   
    12     5    43 1   
    13     5    44 1   
    14     5    45 1   
    15     6     7 1   
    16     6     8 1   
    17     6    46 1   
    18     6    47 1   
    19     7    26 1   
    20     7    48 1   
    21     7    49 1   
    22     8    20 1   
    23     8    21 1   
    24     8    50 1   
    25     9    10 ar  
    26     9    34 ar  
    27     9    72 1   
    28    10    11 1   
    29    10    33 ar  
    30    12    13 ar  
    31    12    17 ar  
    32    12    18 1   
    33    13    14 ar  
    34    14    15 ar  
    35    14    51 1   
    36    15    16 ar  
    37    15    52 1   
    38    16    17 ar  
    39    16    19 1   
    40    17    53 1   
    41    18    54 1   
    42    19    55 1   
    43    19    71 1   
    44    20    22 ar  
    45    21    30 1   
    46    21    56 1   
    47    22    23 ar  
    48    23    57 1   
    49    24    71 2   
    50    25    71 1   
    51    26    27 1   
    52    26    58 1   
    53    26    59 1   
    54    27    29 1   
    55    27    60 1   
    56    29    61 1   
    57    29    62 1   
    58    29    63 1   
    59    30    31 2   
    60    30    38 1   
    61    32    33 ar  
    62    32    35 ar  
    63    32    64 1   
    64    33    65 1   
    65    34    35 ar  
    66    34    36 1   
    67    35    66 1   
    68    36    37 1   
    69    36    40 1   
    70    37    38 2   
    71    37    70 1   
    72    38    39 1   
    73    39    40 2   
    74    39    67 1   
    75    68    70 1   
    76    69    70 1   
@<TRIPOS>SUBSTRUCTURE
     1 QEY         1 TEMP              0 ****  ****    0 ROOT
