@<TRIPOS>MOLECULE
QEY
   72    76     1     0     0
SMALL
abcg2


@<TRIPOS>ATOM
      1 C18         -4.5210    -2.5700     0.1170 c          1 QEY       0.604100
      2 C17         -1.9070    -0.5620    -0.1820 ca         1 QEY      -0.137000
      3 C16         -2.7770    -0.1050     0.8000 cp         1 QEY       0.015000
      4 C15         -2.3680    -0.2300     2.1230 ca         1 QEY      -0.134000
      5 C22        -10.2830     4.5380    -1.0160 c3         1 QEY       0.171900
      6 C23         -0.2260    -3.3080    -1.1010 c3         1 QEY      -0.083400
      7 C24         -1.7070    -3.5410    -1.4260 c3         1 QEY      -0.071400
      8 C11          0.1340    -1.8300    -0.8890 c3         1 QEY       0.071400
      9 C34          7.8390     0.8020    -0.4040 ca         1 QEY       0.201000
     10 C33          8.9830     1.5620    -0.2300 ca         1 QEY       0.062000
     11 CL1         10.3040     1.3420    -1.3090 cl         1 QEY      -0.158000
     12 C2          -4.9760    -0.2440    -0.3830 ca         1 QEY       0.006000
     13 C3          -4.0830     0.4670     0.4270 cp         1 QEY      -0.062000
     14 C4          -4.4600     1.7370     0.8440 ca         1 QEY      -0.056000
     15 C5          -5.6520     2.3260     0.4490 ca         1 QEY      -0.142000
     16 C6          -6.5180     1.6240    -0.3880 ca         1 QEY       0.014000
     17 C7          -6.1700     0.3300    -0.7820 ca         1 QEY      -0.189000
     18 N8          -4.6840    -1.5670    -0.7830 ns         1 QEY      -0.178000
     19 N9          -7.7340     2.1100    -0.8630 ns         1 QEY      -0.139000
     20 C10         -0.7270    -1.1940     0.1800 ca         1 QEY       0.328300
     21 N12          1.5430    -1.7270    -0.5950 ns         1 QEY      -0.480900
     22 N13         -0.3520    -1.3320     1.4460 nb         1 QEY      -0.669000
     23 C14         -1.1480    -0.8350     2.3850 ca         1 QEY       0.337900
     24 O20         -7.9180     4.1500     0.1660 o          1 QEY      -0.518000
     25 O21         -9.5050     3.3600    -1.2150 os         1 QEY      -0.459100
     26 C25         -2.5320    -4.0150    -0.2300 c3         1 QEY      -0.074400
     27 C26         -4.0590    -3.9040    -0.4380 c3         1 QEY      -0.133700
     28 O27         -4.6920    -2.3940     1.3100 o          1 QEY      -0.575100
     29 C28         -4.8040    -5.0420     0.2520 c3         1 QEY      -0.080100
     30 C29          2.1790    -0.5380    -0.5970 c          1 QEY       0.668700
     31 O30          1.6100     0.4980    -0.9420 o          1 QEY      -0.651100
     32 C31          7.9590     2.6470     1.6480 ca         1 QEY      -0.117000
     33 C32          9.0440     2.4900     0.7980 ca         1 QEY      -0.069000
     34 C35          6.7550     0.9480     0.4510 ca         1 QEY      -0.033200
     35 C36          6.8200     1.8740     1.4830 ca         1 QEY      -0.075000
     36 N37          5.6080     0.1610     0.2510 na         1 QEY       0.160000
     37 C38          4.3820     0.5970    -0.1150 cc         1 QEY       0.334000
     38 C39          3.5800    -0.5420    -0.1990 cd         1 QEY      -0.361600
     39 C40          4.4560    -1.6030     0.1330 cd         1 QEY       0.308900
     40 N41          5.6640    -1.1900     0.3960 nc         1 QEY      -0.503800
     41 H53         -2.1480    -0.4360    -1.2300 ha         1 QEY       0.121000
     42 H52         -2.9930     0.1080     2.9380 ha         1 QEY       0.130000
     43 H54        -11.1820     4.4000    -1.6090 h1         1 QEY       0.051367
     44 H55        -10.5580     4.6650     0.0300 h1         1 QEY       0.051367
     45 H56         -9.7570     5.4280    -1.3620 h1         1 QEY       0.051367
     46 H57          0.0540    -3.8780    -0.2090 hc         1 QEY       0.052200
     47 H58          0.4010    -3.6790    -1.9150 hc         1 QEY       0.052200
     48 H59         -2.1410    -2.6310    -1.8510 hc         1 QEY       0.038700
     49 H60         -1.7900    -4.2920    -2.2150 hc         1 QEY       0.038700
     50 H49         -0.0630    -1.3100    -1.8300 h1         1 QEY       0.072700
     51 H44         -3.7900     2.3040     1.4780 ha         1 QEY       0.124000
     52 H45         -5.8820     3.3210     0.7900 ha         1 QEY       0.152000
     53 H46         -6.8490    -0.2490    -1.3970 ha         1 QEY       0.115000
     54 H47         -4.6620    -1.7770    -1.7680 hn         1 QEY       0.155000
     55 H48         -8.2340     1.4950    -1.4880 hn         1 QEY       0.166000
     56 H50          1.9820    -2.5190    -0.1530 hn         1 QEY       0.317500
     57 H51         -0.8110    -0.9430     3.4100 h4         1 QEY       0.018100
     58 H61         -2.2820    -5.0610    -0.0340 hc         1 QEY       0.057200
     59 H62         -2.2470    -3.4740     0.6760 hc         1 QEY       0.057200
     60 H63         -4.2700    -3.9560    -1.5120 hc         1 QEY       0.048700
     61 H65         -5.8830    -4.9580     0.1180 hc         1 QEY       0.044700
     62 H66         -4.4900    -5.9970    -0.1670 hc         1 QEY       0.044700
     63 H64         -4.5970    -5.0590     1.3220 hc         1 QEY       0.044700
     64 H67          8.0090     3.3690     2.4500 ha         1 QEY       0.131000
     65 H68          9.9380     3.0850     0.9300 ha         1 QEY       0.136000
     66 H69          5.9800     1.9820     2.1550 ha         1 QEY       0.142000
     67 H70          4.2350    -2.6600     0.1800 h4         1 QEY       0.036100
     68 H71          4.8270     2.5300    -0.5480 hn         1 QEY       0.491000
     69 H72          3.2090     2.0720    -0.7570 hn         1 QEY       0.491000
     70 N42          4.0830     1.9030    -0.2850 nv         1 QEY      -1.070000
     71 C19         -8.3440     3.2880    -0.5670 c          1 QEY       0.647100
     72 F43          7.7740    -0.0690    -1.4020 f          1 QEY      -0.139000
@<TRIPOS>BOND
     1     1    18 1   
     2     1    27 1   
     3     1    28 2   
     4     2     3 ar  
     5     2    20 ar  
     6     2    41 1   
     7     3     4 ar  
     8     3    13 1   
     9     4    23 ar  
    10     4    42 1   
    11     5    25 1   
    12     5    43 1   
    13     5    44 1   
    14     5    45 1   
    15     6     7 1   
    16     6     8 1   
    17     6    46 1   
    18     6    47 1   
    19     7    26 1   
    20     7    48 1   
    21     7    49 1   
    22     8    20 1   
    23     8    21 1   
    24     8    50 1   
    25     9    10 ar  
    26     9    34 ar  
    27     9    72 1   
    28    10    11 1   
    29    10    33 ar  
    30    12    13 ar  
    31    12    17 ar  
    32    12    18 1   
    33    13    14 ar  
    34    14    15 ar  
    35    14    51 1   
    36    15    16 ar  
    37    15    52 1   
    38    16    17 ar  
    39    16    19 1   
    40    17    53 1   
    41    18    54 1   
    42    19    55 1   
    43    19    71 1   
    44    20    22 ar  
    45    21    30 1   
    46    21    56 1   
    47    22    23 ar  
    48    23    57 1   
    49    24    71 2   
    50    25    71 1   
    51    26    27 1   
    52    26    58 1   
    53    26    59 1   
    54    27    29 1   
    55    27    60 1   
    56    29    61 1   
    57    29    62 1   
    58    29    63 1   
    59    30    31 2   
    60    30    38 1   
    61    32    33 ar  
    62    32    35 ar  
    63    32    64 1   
    64    33    65 1   
    65    34    35 ar  
    66    34    36 1   
    67    35    66 1   
    68    36    37 1   
    69    36    40 1   
    70    37    38 2   
    71    37    70 1   
    72    38    39 1   
    73    39    40 2   
    74    39    67 1   
    75    68    70 1   
    76    69    70 1   
@<TRIPOS>SUBSTRUCTURE
     1 QEY         1 TEMP              0 ****  ****    0 ROOT
