@<TRIPOS>MOLECULE
QEZ
   39    41     1     0     0
SMALL
No Charge or Current Charge


@<TRIPOS>ATOM
      1 CAK          7.7260     6.0180   -21.8260 ca         1 QEZ       0.006000
      2 CAU          7.8100     7.4130   -21.6540 ca         1 QEZ      -0.085300
      3 CAO          8.3940     7.9660   -20.3460 c6         1 QEZ      -0.034100
      4 CAM          8.0930     9.4650   -20.1210 c6         1 QEZ      -0.071400
      5 CAL          8.3730    10.2720   -21.4040 c6         1 QEZ      -0.073400
      6 CAN          7.4530     9.8000   -22.5520 c6         1 QEZ      -0.032100
      7 CAT          7.3860     8.2740   -22.6950 ca         1 QEZ      -0.028300
      8 CAH          6.8730     7.7240   -23.8850 ca         1 QEZ      -0.140000
      9 CAG          6.7880     6.3320   -24.0520 ca         1 QEZ      -0.013000
     10 CAS          7.2120     5.4750   -23.0200 ca         1 QEZ      -0.295500
     11 SAX          7.1500     3.6950   -23.2350 sy         1 QEZ       1.128600
     12 OAB          6.9540     3.0450   -21.9390 o          1 QEZ      -0.563500
     13 OAC          6.3710     3.3310   -24.4220 o          1 QEZ      -0.563500
     14 NAP          8.7180     3.2600   -23.5990 nu         1 QEZ      -0.871100
     15 CAV          9.5980     3.9360   -24.4310 ca         1 QEZ       0.272000
     16 CAI          9.1940     4.2880   -25.7340 ca         1 QEZ      -0.144000
     17 CAF         10.0590     4.9820   -26.5930 ca         1 QEZ      -0.092000
     18 CAR         11.3420     5.3240   -26.1530 ca         1 QEZ      -0.043900
     19 Br          12.5260     6.2720   -27.3170 br         1 QEZ      -0.153100
     20 CAJ         11.7640     4.9690   -24.8630 ca         1 QEZ      -0.044000
     21 CAW         10.9040     4.2680   -23.9820 ca         1 QEZ      -0.174600
     22 CAQ         11.4110     3.9080   -22.5960 c          1 QEZ       0.720600
     23 OAD         10.6110     3.5610   -21.7370 o          1 QEZ      -0.691500
     24 OAA         12.6140     3.9770   -22.3870 o          1 QEZ      -0.691500
     25 H1           8.0690     5.3590   -21.0290 ha         1 QEZ       0.142000
     26 H2           8.0150     7.3880   -19.4910 hc         1 QEZ       0.059700
     27 H3           9.4820     7.8150   -20.3570 hc         1 QEZ       0.059700
     28 H4           8.7020     9.8470   -19.2910 hc         1 QEZ       0.032700
     29 H5           7.0420     9.5930   -19.8250 hc         1 QEZ       0.032700
     30 H6           9.4250    10.1490   -21.6960 hc         1 QEZ       0.041700
     31 H7           8.2200    11.3440   -21.2190 hc         1 QEZ       0.041700
     32 H8           7.7900    10.2520   -23.4950 hc         1 QEZ       0.042200
     33 H9           6.4370    10.1800   -22.3780 hc         1 QEZ       0.042200
     34 H10          6.5410     8.3780   -24.6870 ha         1 QEZ       0.102000
     35 H11          6.3970     5.9290   -24.9850 ha         1 QEZ       0.130000
     36 H12          9.1100     3.1390   -22.6650 hn         1 QEZ       0.566000
     37 H13          8.2060     4.0190   -26.0930 ha         1 QEZ       0.131000
     38 H14          9.7330     5.2500   -27.5960 ha         1 QEZ       0.110000
     39 H15         12.7680     5.2460   -24.5480 ha         1 QEZ       0.147000
@<TRIPOS>BOND
     1     1     2 ar  
     2     1    10 ar  
     3     1    25 1   
     4     2     3 1   
     5     2     7 ar  
     6     3     4 1   
     7     3    26 1   
     8     3    27 1   
     9     4     5 1   
    10     4    28 1   
    11     4    29 1   
    12     5     6 1   
    13     5    30 1   
    14     5    31 1   
    15     6     7 1   
    16     6    32 1   
    17     6    33 1   
    18     7     8 ar  
    19     8     9 ar  
    20     8    34 1   
    21     9    10 ar  
    22     9    35 1   
    23    10    11 1   
    24    11    12 2   
    25    11    13 2   
    26    11    14 1   
    27    14    15 1   
    28    14    36 1   
    29    15    16 ar  
    30    15    21 ar  
    31    16    17 ar  
    32    16    37 1   
    33    17    18 ar  
    34    17    38 1   
    35    18    19 1   
    36    18    20 ar  
    37    20    21 ar  
    38    20    39 1   
    39    21    22 1   
    40    22    23 1   
    41    22    24 1   
@<TRIPOS>SUBSTRUCTURE
     1 QEZ         1 TEMP              0 ****  ****    0 ROOT
