@<TRIPOS>MOLECULE
QEZ
   39    41     1     0     0
SMALL
bcc


@<TRIPOS>ATOM
      1 CAK          7.6540     5.9580   -21.7990 ca         1 QEZ      -0.012000
      2 CAU          7.8460     7.3220   -21.6070 ca         1 QEZ      -0.085300
      3 CAO          8.2820     7.8150   -20.2510 c6         1 QEZ      -0.034100
      4 CAM          8.0670     9.3100   -20.0670 c6         1 QEZ      -0.071400
      5 CAL          8.6070    10.0670   -21.2710 c6         1 QEZ      -0.073400
      6 CAN          7.8300     9.6830   -22.5230 c6         1 QEZ      -0.032100
      7 CAT          7.6570     8.1950   -22.6820 ca         1 QEZ      -0.028300
      8 CAH          7.2770     7.6800   -23.9220 ca         1 QEZ      -0.158000
      9 CAG          7.0850     6.3250   -24.1160 ca         1 QEZ      -0.031000
     10 CAS          7.2770     5.4690   -23.0390 ca         1 QEZ      -0.295500
     11 SAX          7.1730     3.7180   -23.2620 sy         1 QEZ       1.270200
     12 OAB          6.7660     3.0980   -22.0110 o          1 QEZ      -0.634300
     13 OAC          6.4040     3.4560   -24.4680 o          1 QEZ      -0.634300
     14 NAP          8.7420     3.2290   -23.5040 nu         1 QEZ      -0.677500
     15 CAV          9.5180     3.9340   -24.4500 ca         1 QEZ       0.133600
     16 CAI          9.2040     3.8860   -25.8060 ca         1 QEZ      -0.162000
     17 CAF          9.9620     4.5820   -26.7310 ca         1 QEZ      -0.110000
     18 CAR         11.0510     5.3200   -26.2910 ca         1 QEZ      -0.043900
     19 BR          12.0980     6.2720   -27.5460 br         1 QEZ      -0.153100
     20 CAJ         11.3830     5.3660   -24.9490 ca         1 QEZ      -0.062000
     21 CAW         10.6240     4.6770   -24.0090 ca         1 QEZ      -0.174600
     22 CAQ         11.0420     4.7450   -22.5400 c          1 QEZ       0.931200
     23 OAD         10.5010     3.9140   -21.7620 o          1 QEZ      -0.796800
     24 OAA         11.8830     5.5930   -22.2300 o          1 QEZ      -0.796800
     25 H1           7.8000     5.2830   -20.9640 ha         1 QEZ       0.160000
     26 H2           7.7610     7.2520   -19.4740 hc         1 QEZ       0.059700
     27 H3           9.3450     7.5850   -20.1270 hc         1 QEZ       0.059700
     28 H4           8.5560     9.6400   -19.1480 hc         1 QEZ       0.032700
     29 H5           7.0000     9.5230   -19.9510 hc         1 QEZ       0.032700
     30 H6           9.6680     9.8320   -21.4030 hc         1 QEZ       0.041700
     31 H7           8.5410    11.1450   -21.1160 hc         1 QEZ       0.041700
     32 H8           8.3080    10.0910   -23.4160 hc         1 QEZ       0.042200
     33 H9           6.8350    10.1400   -22.4800 hc         1 QEZ       0.042200
     34 H10          7.1320     8.3580   -24.7540 ha         1 QEZ       0.120000
     35 H11          6.7930     5.9500   -25.0880 ha         1 QEZ       0.148000
     36 H12          9.2830     3.2610   -22.6010 hn         1 QEZ       0.510800
     37 H13          8.3680     3.2940   -26.1490 ha         1 QEZ       0.149000
     38 H14          9.7050     4.5330   -27.7810 ha         1 QEZ       0.128000
     39 H15         12.2330     5.9420   -24.6080 ha         1 QEZ       0.165000
@<TRIPOS>BOND
     1     1     2 ar  
     2     1    10 ar  
     3     1    25 1   
     4     2     3 1   
     5     2     7 ar  
     6     3     4 1   
     7     3    26 1   
     8     3    27 1   
     9     4     5 1   
    10     4    28 1   
    11     4    29 1   
    12     5     6 1   
    13     5    30 1   
    14     5    31 1   
    15     6     7 1   
    16     6    32 1   
    17     6    33 1   
    18     7     8 ar  
    19     8     9 ar  
    20     8    34 1   
    21     9    10 ar  
    22     9    35 1   
    23    10    11 1   
    24    11    12 2   
    25    11    13 2   
    26    11    14 1   
    27    14    15 1   
    28    14    36 1   
    29    15    16 ar  
    30    15    21 ar  
    31    16    17 ar  
    32    16    37 1   
    33    17    18 ar  
    34    17    38 1   
    35    18    19 1   
    36    18    20 ar  
    37    20    21 ar  
    38    20    39 1   
    39    21    22 1   
    40    22    23 1   
    41    22    24 1   
@<TRIPOS>SUBSTRUCTURE
     1 QEZ         1 TEMP              0 ****  ****    0 ROOT
