@<TRIPOS>MOLECULE
QF0
   31    32     1     0     0
SMALL
abcg2


@<TRIPOS>ATOM
      1 C02         10.3420     5.4580    13.5200 ca         1 QF0      -0.123000
      2 C03          9.4670     6.3380    14.1050 ca         1 QF0      -0.096000
      3 C04          9.8290     7.0530    15.2750 ca         1 QF0      -0.029000
      4 C05          8.9460     7.9610    15.9100 ca         1 QF0      -0.107000
      5 C06          9.3030     8.6420    17.0480 ca         1 QF0      -0.025300
      6 C07         10.6000     8.4330    17.5850 ca         1 QF0      -0.086000
      7 C08         11.4820     7.5630    17.0000 ca         1 QF0      -0.114000
      8 C09         11.1260     6.8430    15.8330 ca         1 QF0      -0.044000
      9 C10         12.0060     5.9280    15.2050 ca         1 QF0      -0.096000
     10 C11          8.3540     9.5810    17.7430 c3         1 QF0      -0.039100
     11 N            7.1480     7.8280    18.9860 n8         1 QF0      -1.008200
     12 CB           7.1060    10.1770    19.8520 c3         1 QF0      -0.241400
     13 C            6.6490     9.8170    21.2800 c          1 QF0       0.704000
     14 O            7.2200     8.8560    21.8600 o          1 QF0      -0.738000
     15 CA           7.8940     9.0880    19.1240 c3         1 QF0       0.178500
     16 C01         11.6240     5.2500    14.0750 ca         1 QF0      -0.126000
     17 H1          10.0520     4.9170    12.6270 ha         1 QF0       0.100000
     18 H9           8.4820     6.4990    13.6810 ha         1 QF0       0.106000
     19 H3           7.9600     8.1070    15.4820 ha         1 QF0       0.109000
     20 H4          10.8930     8.9750    18.4770 ha         1 QF0       0.119000
     21 H5          12.4690     7.4150    17.4240 ha         1 QF0       0.103000
     22 H6          12.9890     5.7730    15.6350 ha         1 QF0       0.103000
     23 H7           8.8390    10.5520    17.8770 hc         1 QF0       0.038200
     24 H8           7.4740     9.7460    17.1150 hc         1 QF0       0.038200
     25 H            6.8420     7.5530    19.9150 hn         1 QF0       0.397500
     26 H2           6.3040     7.9980    18.4440 hn         1 QF0       0.397500
     27 H12          7.7160    11.0850    19.9320 hc         1 QF0       0.024200
     28 H13          6.2220    10.4520    19.2670 hc         1 QF0       0.024200
     29 HA           8.7800     8.8610    19.7210 h1         1 QF0       0.068700
     30 H16         12.3050     4.5520    13.6030 ha         1 QF0       0.099000
     31 OXT          5.7400    10.5350    21.7720 o          1 QF0      -0.738000
@<TRIPOS>BOND
     1     1     2 ar  
     2     1    16 ar  
     3     1    17 1   
     4     2     3 ar  
     5     2    18 1   
     6     3     4 ar  
     7     3     8 ar  
     8     4     5 ar  
     9     4    19 1   
    10     5     6 ar  
    11     5    10 1   
    12     6     7 ar  
    13     6    20 1   
    14     7     8 ar  
    15     7    21 1   
    16     8     9 ar  
    17     9    16 ar  
    18     9    22 1   
    19    10    15 1   
    20    10    23 1   
    21    10    24 1   
    22    11    15 1   
    23    11    25 1   
    24    11    26 1   
    25    12    13 1   
    26    12    15 1   
    27    12    27 1   
    28    12    28 1   
    29    13    14 1   
    30    13    31 1   
    31    15    29 1   
    32    16    30 1   
@<TRIPOS>SUBSTRUCTURE
     1 QF0         1 TEMP              0 ****  ****    0 ROOT
