@<TRIPOS>MOLECULE
QF0
   31    32     1     0     0
SMALL
No Charge or Current Charge


@<TRIPOS>ATOM
      1 C02         10.3200     5.5210    13.4420 ca         1 QF0      -0.123000
      2 C03          9.4540     6.4340    14.0690 ca         1 QF0      -0.096000
      3 C04          9.8370     7.0600    15.2710 ca         1 QF0      -0.029000
      4 C05          8.9740     7.9760    15.9020 ca         1 QF0      -0.107000
      5 C06          9.3530     8.6020    17.1060 ca         1 QF0      -0.025300
      6 C07         10.6100     8.3090    17.6700 ca         1 QF0      -0.086000
      7 C08         11.4770     7.3960    17.0440 ca         1 QF0      -0.114000
      8 C09         11.0940     6.7680    15.8450 ca         1 QF0      -0.044000
      9 C10         11.9580     5.8530    15.2140 ca         1 QF0      -0.096000
     10 C11          8.4240     9.6080    17.7830 c3         1 QF0      -0.039100
     11 N            7.0520     7.9090    18.9900 n8         1 QF0      -1.008200
     12 CB           7.0190    10.2100    19.8540 c3         1 QF0      -0.241400
     13 C            6.8210     9.8480    21.3320 c          1 QF0       0.704000
     14 O            7.6700    10.2100    22.1310 o          1 QF0      -0.738000
     15 CA           7.8640     9.1270    19.1500 c3         1 QF0       0.178500
     16 C01         11.5710     5.2310    14.0140 ca         1 QF0      -0.126000
     17 H1          10.0220     5.0390    12.5140 ha         1 QF0       0.100000
     18 H9           8.4880     6.6540    13.6200 ha         1 QF0       0.106000
     19 H3           8.0070     8.2000    15.4570 ha         1 QF0       0.109000
     20 H4          10.9180     8.7920    18.5940 ha         1 QF0       0.119000
     21 H5          12.4440     7.1790    17.4930 ha         1 QF0       0.103000
     22 H6          12.9280     5.6240    15.6500 ha         1 QF0       0.103000
     23 H7           8.9770    10.5430    17.9390 hc         1 QF0       0.038200
     24 H8           7.5880     9.8650    17.1210 hc         1 QF0       0.038200
     25 H            6.4730     7.8130    19.8340 hn         1 QF0       0.397500
     26 H2           6.3590     8.0760    18.2530 hn         1 QF0       0.397500
     27 H12          7.6010    11.1370    19.7840 hc         1 QF0       0.024200
     28 H13          6.0570    10.2620    19.3280 hc         1 QF0       0.024200
     29 HA           8.7170     8.8890    19.8040 h1         1 QF0       0.068700
     30 H16         12.2400     4.5240    13.5280 ha         1 QF0       0.099000
     31 OXT          5.8460     9.1780    21.6360 o          1 QF0      -0.738000
@<TRIPOS>BOND
     1     1     2 ar  
     2     1    16 ar  
     3     1    17 1   
     4     2     3 ar  
     5     2    18 1   
     6     3     4 ar  
     7     3     8 ar  
     8     4     5 ar  
     9     4    19 1   
    10     5     6 ar  
    11     5    10 1   
    12     6     7 ar  
    13     6    20 1   
    14     7     8 ar  
    15     7    21 1   
    16     8     9 ar  
    17     9    16 ar  
    18     9    22 1   
    19    10    15 1   
    20    10    23 1   
    21    10    24 1   
    22    11    15 1   
    23    11    25 1   
    24    11    26 1   
    25    12    13 1   
    26    12    15 1   
    27    12    27 1   
    28    12    28 1   
    29    13    14 1   
    30    13    31 1   
    31    15    29 1   
    32    16    30 1   
@<TRIPOS>SUBSTRUCTURE
     1 QF0         1 TEMP              0 ****  ****    0 ROOT
