@<TRIPOS>MOLECULE
QF1
   44    46     1     0     0
SMALL
abcg2


@<TRIPOS>ATOM
      1 C10         -6.7290   -46.2420    -8.6390 c3         1 QF1      -0.344100
      2 C13         -4.0680   -45.9070   -11.6240 c5         1 QF1       0.078300
      3 C15         -1.8700   -45.6880   -12.6080 c5         1 QF1      -0.084900
      4 C01         -8.1300   -42.6960    -7.4480 ca         1 QF1       0.011000
      5 C02         -8.0640   -42.5700    -8.8290 ca         1 QF1      -0.083900
      6 C03         -7.0230   -41.8890    -9.4330 ca         1 QF1       0.044000
      7 C04         -6.0270   -41.3250    -8.6420 ca         1 QF1      -0.306500
      8 C05         -6.0550   -41.4340    -7.2440 ca         1 QF1       0.286100
      9 C06         -7.1320   -42.1290    -6.6750 ca         1 QF1      -0.003000
     10 C07         -3.6190   -43.5870   -10.7060 cc         1 QF1      -0.171000
     11 C08         -3.6740   -43.0160    -9.4540 cd         1 QF1       0.402900
     12 C09         -4.2860   -45.0430    -9.2190 cc         1 QF1       0.202400
     13 C11         -2.8640   -45.0740   -13.6200 c5         1 QF1      -0.084900
     14 C12         -4.2770   -45.2790   -13.0100 c5         1 QF1      -0.092400
     15 C14         -2.7210   -46.6300   -11.7500 c5         1 QF1      -0.092400
     16 N02         -4.0170   -44.8830   -10.5550 na         1 QF1      -0.098500
     17 N03         -4.0990   -43.9300    -8.5380 nd         1 QF1      -0.561000
     18 O01         -5.0680   -40.9050    -6.5110 oh         1 QF1      -0.494100
     19 O02         -4.9550   -40.5920   -10.8840 o          1 QF1      -0.544000
     20 O03         -4.2550   -39.3220    -8.8880 o          1 QF1      -0.544000
     21 S01         -4.6460   -40.5810    -9.4730 sy         1 QF1       1.197600
     22 S02         -4.9830   -46.4750    -8.4410 sy         1 QF1       1.056100
     23 CL01        -7.1830   -42.2910    -4.9420 cl         1 QF1      -0.185000
     24 H1          -7.2100   -47.1090    -8.1860 h1         1 QF1       0.107700
     25 H2          -7.0110   -45.3260    -8.1260 h1         1 QF1       0.107700
     26 H3          -6.9550   -46.1840    -9.7030 h1         1 QF1       0.107700
     27 H4          -4.8750   -46.5810   -11.3620 h1         1 QF1       0.083700
     28 H5          -1.0430   -46.2050   -13.0940 hc         1 QF1       0.051950
     29 H6          -1.4360   -44.9070   -11.9790 hc         1 QF1       0.051950
     30 H7          -8.9380   -43.2330    -6.9730 ha         1 QF1       0.146000
     31 H8          -6.9570   -41.8060   -10.5060 ha         1 QF1       0.159000
     32 H9          -3.3430   -43.1640   -11.6540 h4         1 QF1       0.179000
     33 H10         -2.7970   -45.5820   -14.5830 hc         1 QF1       0.051950
     34 H11         -2.6500   -44.0200   -13.8010 hc         1 QF1       0.051950
     35 H12         -4.8650   -44.3640   -12.9610 hc         1 QF1       0.067950
     36 H13         -4.8470   -45.9900   -13.6070 hc         1 QF1       0.067950
     37 H14         -2.9010   -47.5690   -12.2790 hc         1 QF1       0.067950
     38 H15         -2.2850   -46.8670   -10.7810 hc         1 QF1       0.067950
     39 H17         -5.2090   -41.0980    -5.5700 ho         1 QF1       0.498000
     40 N01         -3.4610   -41.6710    -9.0850 nu         1 QF1      -0.845000
     41 O04         -4.5790   -47.6540    -9.1780 o          1 QF1      -0.514000
     42 O05         -4.6570   -46.3890    -7.0350 o          1 QF1      -0.514000
     43 BR01        -9.4120   -43.3810    -9.9090 br         1 QF1      -0.091100
     44 H16         -2.5290   -41.2830    -9.1840 hn         1 QF1       0.507000
@<TRIPOS>BOND
     1     1    22 1   
     2     1    24 1   
     3     1    25 1   
     4     1    26 1   
     5     2    14 1   
     6     2    15 1   
     7     2    16 1   
     8     2    27 1   
     9     3    13 1   
    10     3    15 1   
    11     3    28 1   
    12     3    29 1   
    13     4     5 ar  
    14     4     9 ar  
    15     4    30 1   
    16     5     6 ar  
    17     5    43 1   
    18     6     7 ar  
    19     6    31 1   
    20     7     8 ar  
    21     7    21 1   
    22     8     9 ar  
    23     8    18 1   
    24     9    23 1   
    25    10    11 2   
    26    10    16 1   
    27    10    32 1   
    28    11    17 1   
    29    11    40 1   
    30    12    16 1   
    31    12    17 2   
    32    12    22 1   
    33    13    14 1   
    34    13    33 1   
    35    13    34 1   
    36    14    35 1   
    37    14    36 1   
    38    15    37 1   
    39    15    38 1   
    40    18    39 1   
    41    19    21 2   
    42    20    21 2   
    43    21    40 1   
    44    22    41 2   
    45    22    42 2   
    46    40    44 1   
@<TRIPOS>SUBSTRUCTURE
     1 QF1         1 TEMP              0 ****  ****    0 ROOT
