@<TRIPOS>MOLECULE
QF1
   44    46     1     0     0
SMALL
No Charge or Current Charge


@<TRIPOS>ATOM
      1 C10         -6.1440   -46.1860    -7.8870 c3         1 QF1      -0.344100
      2 C13         -4.2960   -45.7440   -11.2680 c5         1 QF1       0.078300
      3 C15         -2.4260   -45.7250   -12.7830 c5         1 QF1      -0.084900
      4 C01         -8.0630   -43.0360    -8.6170 ca         1 QF1       0.011000
      5 C02         -7.5410   -42.6690    -9.8660 ca         1 QF1      -0.083900
      6 C03         -6.4160   -41.8350    -9.9450 ca         1 QF1       0.044000
      7 C04         -5.7870   -41.3690    -8.7690 ca         1 QF1      -0.306500
      8 C05         -6.3070   -41.7430    -7.5110 ca         1 QF1       0.286100
      9 C06         -7.4500   -42.5710    -7.4430 ca         1 QF1      -0.003000
     10 C07         -3.5130   -43.4070   -10.6110 cc         1 QF1      -0.171000
     11 C08         -3.3350   -42.7960    -9.4090 cd         1 QF1       0.402900
     12 C09         -3.8760   -44.7960    -8.8960 cc         1 QF1       0.202400
     13 C11         -3.6120   -45.0980   -13.5750 c5         1 QF1      -0.084900
     14 C12         -4.8550   -45.2360   -12.6330 c5         1 QF1      -0.092400
     15 C14         -3.1420   -46.6530   -11.7730 c5         1 QF1      -0.092400
     16 N02         -3.8960   -44.7000   -10.2960 na         1 QF1      -0.098500
     17 N03         -3.5380   -43.6230    -8.3530 nd         1 QF1      -0.561000
     18 O01         -5.7280   -41.3360    -6.3460 oh         1 QF1      -0.494100
     19 O02         -4.2980   -39.7250   -10.2590 o          1 QF1      -0.544000
     20 O03         -3.9090   -39.6900    -7.7330 o          1 QF1      -0.544000
     21 S01         -4.2820   -40.3990    -8.9600 sy         1 QF1       1.197600
     22 S02         -4.3500   -46.3070    -7.9460 sy         1 QF1       1.056100
     23 Cl01        -8.1160   -43.0620    -5.8830 cl         1 QF1      -0.185000
     24 H1          -6.5260   -47.0630    -7.3530 h1         1 QF1       0.107700
     25 H2          -6.4040   -45.2670    -7.3520 h1         1 QF1       0.107700
     26 H3          -6.5280   -46.1600    -8.9120 h1         1 QF1       0.107700
     27 H4          -5.0720   -46.3610   -10.7990 h1         1 QF1       0.083700
     28 H5          -1.7370   -46.2740   -13.4360 hc         1 QF1       0.051950
     29 H6          -1.8330   -44.9570   -12.2730 hc         1 QF1       0.051950
     30 H7          -8.9350   -43.6830    -8.5570 ha         1 QF1       0.146000
     31 H8          -6.0230   -41.5740   -10.9280 ha         1 QF1       0.159000
     32 H9          -3.4410   -43.0200   -11.6170 h4         1 QF1       0.179000
     33 H10         -3.7820   -45.6300   -14.5180 hc         1 QF1       0.051950
     34 H11         -3.4080   -44.0540   -13.8390 hc         1 QF1       0.051950
     35 H12         -5.4160   -44.2990   -12.5350 hc         1 QF1       0.067950
     36 H13         -5.5590   -45.9680   -13.0480 hc         1 QF1       0.067950
     37 H14         -3.5280   -47.5560   -12.2620 hc         1 QF1       0.067950
     38 H15         -2.4770   -46.9830   -10.9670 hc         1 QF1       0.067950
     39 H17         -6.2450   -41.7210    -5.6090 ho         1 QF1       0.498000
     40 N01         -3.0460   -41.5010    -9.1830 nu         1 QF1      -0.845000
     41 O04         -4.0450   -47.5070    -8.7390 o          1 QF1      -0.514000
     42 O05         -3.8790   -46.1770    -6.5580 o          1 QF1      -0.514000
     43 Br01        -8.3500   -43.3300   -11.4680 br         1 QF1      -0.091100
     44 H16         -2.5910   -41.0780    -9.9770 hn         1 QF1       0.507000
@<TRIPOS>BOND
     1     1    22 1   
     2     1    24 1   
     3     1    25 1   
     4     1    26 1   
     5     2    14 1   
     6     2    15 1   
     7     2    16 1   
     8     2    27 1   
     9     3    13 1   
    10     3    15 1   
    11     3    28 1   
    12     3    29 1   
    13     4     5 ar  
    14     4     9 ar  
    15     4    30 1   
    16     5     6 ar  
    17     5    43 1   
    18     6     7 ar  
    19     6    31 1   
    20     7     8 ar  
    21     7    21 1   
    22     8     9 ar  
    23     8    18 1   
    24     9    23 1   
    25    10    11 2   
    26    10    16 1   
    27    10    32 1   
    28    11    17 1   
    29    11    40 1   
    30    12    16 1   
    31    12    17 2   
    32    12    22 1   
    33    13    14 1   
    34    13    33 1   
    35    13    34 1   
    36    14    35 1   
    37    14    36 1   
    38    15    37 1   
    39    15    38 1   
    40    18    39 1   
    41    19    21 2   
    42    20    21 2   
    43    21    40 1   
    44    22    41 2   
    45    22    42 2   
    46    40    44 1   
@<TRIPOS>SUBSTRUCTURE
     1 QF1         1 TEMP              0 ****  ****    0 ROOT
