@<TRIPOS>MOLECULE
QF3
   78    81     1     0     0
SMALL
abcg2


@<TRIPOS>ATOM
      1 C1          38.5240    29.9250     1.8250 c5         1 QF3       0.037700
      2 N1          38.7550    29.4830     0.4510 n          1 QF3      -0.392800
      3 C2          38.2580    28.1190     0.2150 c5         1 QF3       0.112000
      4 C3          37.3160    27.8830     1.3850 c5         1 QF3       0.150300
      5 C4          37.9730    28.6680     2.5190 c5         1 QF3      -0.122400
      6 C5          39.8160    30.3930     2.4930 c          1 QF3       0.598100
      7 O1          40.8900    29.8360     2.2840 o          1 QF3      -0.588100
      8 N2          39.6600    31.3950     3.3730 ns         1 QF3      -0.500900
      9 C6          39.2830    30.3320    -0.4450 c          1 QF3       0.621100
     10 O2          39.5490    31.4990    -0.1490 o          1 QF3      -0.606100
     11 C7          39.5670    29.8010    -1.8530 c3         1 QF3      -0.172000
     12 C8          38.5650    30.3720    -2.8010 cc         1 QF3       0.195300
     13 C9          41.0270    30.1320    -2.2610 c3         1 QF3      -0.046700
     14 C10         42.0040    29.4660    -1.2920 c3         1 QF3      -0.095100
     15 C11         41.3060    29.7000    -3.6990 c3         1 QF3      -0.095100
     16 C12         38.0990    31.6240    -3.0360 cd         1 QF3      -0.229000
     17 C13         37.1850    31.4710    -4.1170 cd         1 QF3       0.282300
     18 N3          37.1080    30.2200    -4.5000 nc         1 QF3      -0.364300
     19 O3          37.9860    29.5090    -3.6610 os         1 QF3      -0.105700
     20 O4          36.0420    28.4250     1.0260 oh         1 QF3      -0.656000
     21 C14         36.3790    32.5280    -4.7900 c3         1 QF3      -0.133400
     22 C15         40.7450    31.8810     4.2150 c3         1 QF3       0.170000
     23 C16         41.1050    30.8950     5.3130 ca         1 QF3      -0.113300
     24 C17         40.1960    29.9730     5.8110 ca         1 QF3      -0.069000
     25 C18         40.5410    29.0770     6.8160 ca         1 QF3      -0.137000
     26 C19         41.8310    29.0850     7.3490 ca         1 QF3       0.029000
     27 C20         42.7610    30.0090     6.8560 ca         1 QF3      -0.178000
     28 C21         42.4000    30.9090     5.8580 ca         1 QF3       0.156100
     29 C22         42.2250    28.1310     8.3900 cc         1 QF3      -0.174000
     30 C23         42.9910    28.3190     9.5170 cd         1 QF3       0.296300
     31 N4          43.1780    27.1880    10.2830 nd         1 QF3      -0.638000
     32 C24         42.5780    26.1530     9.7700 cc         1 QF3       0.417300
     33 S1          41.7290    26.4680     8.3070 ss         1 QF3      -0.040400
     34 C25         43.5910    29.6080     9.9820 c3         1 QF3      -0.120400
     35 O5          43.2510    31.8340     5.3380 os         1 QF3      -0.347100
     36 C26         44.6040    31.8750     5.7960 c3         1 QF3       0.163600
     37 C27         45.3190    32.9640     5.0430 c3         1 QF3       0.155600
     38 O6          45.4580    32.5890     3.6830 os         1 QF3      -0.448000
     39 C28         46.0930    33.5940     2.9100 c3         1 QF3       0.144900
     40 C29         40.3630    33.2470     4.7850 c3         1 QF3      -0.098100
     41 H1          37.7910    30.7330     1.8330 h1         1 QF3       0.071700
     42 H2          37.7310    28.0430    -0.7330 h1         1 QF3       0.069700
     43 H3          39.0770    27.3960     0.2320 h1         1 QF3       0.069700
     44 H4          37.2250    26.8200     1.6180 h1         1 QF3       0.056700
     45 H5          37.2780    28.9100     3.3220 hc         1 QF3       0.067200
     46 H6          38.7930    28.0800     2.9340 hc         1 QF3       0.067200
     47 H7          38.7400    31.7880     3.5020 hn         1 QF3       0.312500
     48 H8          39.4600    28.7170    -1.8820 hc         1 QF3       0.077700
     49 H9          41.1390    31.2160    -2.1890 hc         1 QF3       0.071700
     50 H10         41.8280    29.7740    -0.2600 hc         1 QF3       0.041700
     51 H11         41.9090    28.3780    -1.3420 hc         1 QF3       0.041700
     52 H12         43.0310    29.7270    -1.5540 hc         1 QF3       0.041700
     53 H13         42.3410    29.9240    -3.9630 hc         1 QF3       0.041700
     54 H14         41.1540    28.6230    -3.8160 hc         1 QF3       0.041700
     55 H15         40.6590    30.2130    -4.4120 hc         1 QF3       0.041700
     56 H16         38.3630    32.5300    -2.5200 ha         1 QF3       0.164000
     57 H17         35.4620    28.3730     1.7970 ho         1 QF3       0.443000
     58 H18         35.7740    32.1000    -5.5880 hc         1 QF3       0.056367
     59 H19         35.7200    33.0180    -4.0710 hc         1 QF3       0.056367
     60 H20         37.0330    33.2920    -5.2130 hc         1 QF3       0.056367
     61 H21         41.6210    31.9990     3.5790 h1         1 QF3       0.099700
     62 H22         39.1970    29.9460     5.3980 ha         1 QF3       0.109000
     63 H23         39.8040    28.3780     7.1900 ha         1 QF3       0.117000
     64 H24         43.7690    29.9980     7.2400 ha         1 QF3       0.122000
     65 H25         42.5880    25.1650    10.2080 h5         1 QF3       0.053100
     66 H26         43.5560    29.6570    11.0710 hc         1 QF3       0.051033
     67 H27         44.6390    29.6880     9.6800 hc         1 QF3       0.051033
     68 H28         43.0610    30.4650     9.5720 hc         1 QF3       0.051033
     69 H29         44.6310    32.0940     6.8680 h1         1 QF3       0.046700
     70 H30         45.0870    30.9090     5.6200 h1         1 QF3       0.046700
     71 H31         46.3050    33.1180     5.5000 h1         1 QF3       0.035200
     72 H32         44.7580    33.9050     5.1230 h1         1 QF3       0.035200
     73 H33         46.1660    33.2220     1.8890 h1         1 QF3       0.031700
     74 H34         45.5110    34.5230     2.9170 h1         1 QF3       0.031700
     75 H35         47.0990    33.8080     3.2900 h1         1 QF3       0.031700
     76 H36         41.1730    33.6280     5.4060 hc         1 QF3       0.045033
     77 H37         40.1760    33.9580     3.9780 hc         1 QF3       0.045033
     78 H38         39.4650    33.1650     5.4010 hc         1 QF3       0.045033
@<TRIPOS>BOND
     1     1     2 1   
     2     1     5 1   
     3     1     6 1   
     4     1    41 1   
     5     2     3 1   
     6     2     9 1   
     7     3     4 1   
     8     3    42 1   
     9     3    43 1   
    10     4     5 1   
    11     4    20 1   
    12     4    44 1   
    13     5    45 1   
    14     5    46 1   
    15     6     7 2   
    16     6     8 1   
    17     8    22 1   
    18     8    47 1   
    19     9    10 2   
    20     9    11 1   
    21    11    12 1   
    22    11    13 1   
    23    11    48 1   
    24    12    16 2   
    25    12    19 1   
    26    13    14 1   
    27    13    15 1   
    28    13    49 1   
    29    14    50 1   
    30    14    51 1   
    31    14    52 1   
    32    15    53 1   
    33    15    54 1   
    34    15    55 1   
    35    16    17 1   
    36    16    56 1   
    37    17    18 2   
    38    17    21 1   
    39    18    19 1   
    40    20    57 1   
    41    21    58 1   
    42    21    59 1   
    43    21    60 1   
    44    22    23 1   
    45    22    40 1   
    46    22    61 1   
    47    23    24 ar  
    48    23    28 ar  
    49    24    25 ar  
    50    24    62 1   
    51    25    26 ar  
    52    25    63 1   
    53    26    27 ar  
    54    26    29 1   
    55    27    28 ar  
    56    27    64 1   
    57    28    35 1   
    58    29    30 2   
    59    29    33 1   
    60    30    31 1   
    61    30    34 1   
    62    31    32 2   
    63    32    33 1   
    64    32    65 1   
    65    34    66 1   
    66    34    67 1   
    67    34    68 1   
    68    35    36 1   
    69    36    37 1   
    70    36    69 1   
    71    36    70 1   
    72    37    38 1   
    73    37    71 1   
    74    37    72 1   
    75    38    39 1   
    76    39    73 1   
    77    39    74 1   
    78    39    75 1   
    79    40    76 1   
    80    40    77 1   
    81    40    78 1   
@<TRIPOS>SUBSTRUCTURE
     1 QF3         1 TEMP              0 ****  ****    0 ROOT
