@<TRIPOS>MOLECULE
QF3
   78    81     1     0     0
SMALL
No Charge or Current Charge


@<TRIPOS>ATOM
      1 C1          38.6810    29.9970     1.8010 c5         1 QF3       0.037700
      2 N1          38.8500    29.5580     0.3880 n          1 QF3      -0.392800
      3 C2          38.1540    28.2780     0.1030 c5         1 QF3       0.112000
      4 C3          37.3410    28.0130     1.4070 c5         1 QF3       0.150300
      5 C4          38.2560    28.6580     2.4770 c5         1 QF3      -0.122400
      6 C5          39.9790    30.5150     2.5000 c          1 QF3       0.598100
      7 O1          41.1390    30.3200     2.1610 o          1 QF3      -0.588100
      8 N2          39.6290    31.2530     3.6120 ns         1 QF3      -0.500900
      9 C6          39.3230    30.4310    -0.6160 c          1 QF3       0.621100
     10 O2          39.5040    31.6160    -0.3650 o          1 QF3      -0.606100
     11 C7          39.5880    29.8800    -2.0330 c3         1 QF3      -0.172000
     12 C8          38.5100    30.3630    -2.9610 cc         1 QF3       0.195300
     13 C9          41.0240    30.2200    -2.5460 c3         1 QF3      -0.046700
     14 C10         42.1210    29.7080    -1.5810 c3         1 QF3      -0.095100
     15 C11         41.2740    29.6780    -3.9750 c3         1 QF3      -0.095100
     16 C12         38.2450    31.5900    -3.4810 cd         1 QF3      -0.229000
     17 C13         37.1060    31.4360    -4.2870 cd         1 QF3       0.282300
     18 N3          36.6560    30.1940    -4.2930 nc         1 QF3      -0.364300
     19 O3          37.5670    29.4790    -3.4280 os         1 QF3      -0.105700
     20 O4          36.0520    28.6350     1.3780 oh         1 QF3      -0.656000
     21 C14         36.4180    32.5090    -5.0800 c3         1 QF3      -0.133400
     22 C15         40.5880    31.8550     4.5360 c3         1 QF3       0.170000
     23 C16         41.0510    30.8530     5.5980 ca         1 QF3      -0.113300
     24 C17         40.1200    29.9790     6.2010 ca         1 QF3      -0.069000
     25 C18         40.5330    29.0580     7.1740 ca         1 QF3      -0.137000
     26 C19         41.8770    28.9980     7.5740 ca         1 QF3       0.029000
     27 C20         42.8120    29.8630     6.9770 ca         1 QF3      -0.178000
     28 C21         42.4060    30.7960     5.9970 ca         1 QF3       0.156100
     29 C22         42.2910    28.0270     8.5830 cc         1 QF3      -0.174000
     30 C23         42.9690    28.3920     9.7300 cd         1 QF3       0.296300
     31 N4          43.2440    27.3280    10.5780 nd         1 QF3      -0.638000
     32 C24         42.7520    26.2020    10.0670 cc         1 QF3       0.417300
     33 S1          41.9070    26.3340     8.5450 ss         1 QF3      -0.040400
     34 C25         43.4020    29.7760    10.1370 c3         1 QF3      -0.120400
     35 O5          43.3030    31.6740     5.4170 os         1 QF3      -0.347100
     36 C26         44.7020    31.7030     5.7680 c3         1 QF3       0.163600
     37 C27         45.3950    32.8140     4.9480 c3         1 QF3       0.155600
     38 O6          45.4710    32.4030     3.5670 os         1 QF3      -0.448000
     39 C28         46.0860    33.3630     2.6920 c3         1 QF3       0.144900
     40 C29         39.9860    33.1160     5.1810 c3         1 QF3      -0.098100
     41 H1          37.8950    30.7610     1.8730 h1         1 QF3       0.071700
     42 H2          37.4950    28.3460    -0.7730 h1         1 QF3       0.069700
     43 H3          38.8820    27.4750    -0.0740 h1         1 QF3       0.069700
     44 H4          37.2260    26.9330     1.5790 h1         1 QF3       0.056700
     45 H5          37.7510    28.8100     3.4380 hc         1 QF3       0.067200
     46 H6          39.1250    28.0170     2.6700 hc         1 QF3       0.067200
     47 H7          38.6410    31.3620     3.8030 hn         1 QF3       0.312500
     48 H8          39.5160    28.7890    -2.0040 hc         1 QF3       0.077700
     49 H9          41.1190    31.3130    -2.5940 hc         1 QF3       0.071700
     50 H10         42.0330    30.1750    -0.5930 hc         1 QF3       0.041700
     51 H11         42.0540    28.6200    -1.4540 hc         1 QF3       0.041700
     52 H12         43.1190    29.9450    -1.9680 hc         1 QF3       0.041700
     53 H13         42.2890    29.9240    -4.3100 hc         1 QF3       0.041700
     54 H14         41.1600    28.5870    -4.0050 hc         1 QF3       0.041700
     55 H15         40.5740    30.1160    -4.6970 hc         1 QF3       0.041700
     56 H16         38.8020    32.5020    -3.3060 ha         1 QF3       0.164000
     57 H17         35.5930    28.3830     2.2090 ho         1 QF3       0.443000
     58 H18         36.4110    32.2620    -6.1480 hc         1 QF3       0.056367
     59 H19         35.3800    32.6330    -4.7530 hc         1 QF3       0.056367
     60 H20         36.9260    33.4730    -4.9620 hc         1 QF3       0.056367
     61 H21         41.4560    32.1760     3.9420 h1         1 QF3       0.099700
     62 H22         39.0710    30.0130     5.9180 ha         1 QF3       0.109000
     63 H23         39.8020    28.3920     7.6270 ha         1 QF3       0.117000
     64 H24         43.8510    29.7910     7.2810 ha         1 QF3       0.122000
     65 H25         42.8340    25.2300    10.5370 h5         1 QF3       0.053100
     66 H26         43.5180    29.8530    11.2240 hc         1 QF3       0.051033
     67 H27         44.3630    30.0360     9.6800 hc         1 QF3       0.051033
     68 H28         42.6650    30.5280     9.8330 hc         1 QF3       0.051033
     69 H29         44.8220    31.9260     6.8360 h1         1 QF3       0.046700
     70 H30         45.1830    30.7390     5.5570 h1         1 QF3       0.046700
     71 H31         46.4020    32.9780     5.3530 h1         1 QF3       0.035200
     72 H32         44.8300    33.7500     5.0500 h1         1 QF3       0.035200
     73 H33         46.1080    32.9810     1.6630 h1         1 QF3       0.031700
     74 H34         45.5260    34.3070     2.6940 h1         1 QF3       0.031700
     75 H35         47.1180    33.5700     3.0030 h1         1 QF3       0.031700
     76 H36         40.7220    33.5960     5.8380 hc         1 QF3       0.045033
     77 H37         39.6920    33.8400     4.4120 hc         1 QF3       0.045033
     78 H38         39.1020    32.8650     5.7790 hc         1 QF3       0.045033
@<TRIPOS>BOND
     1     1     2 1   
     2     1     5 1   
     3     1     6 1   
     4     1    41 1   
     5     2     3 1   
     6     2     9 1   
     7     3     4 1   
     8     3    42 1   
     9     3    43 1   
    10     4     5 1   
    11     4    20 1   
    12     4    44 1   
    13     5    45 1   
    14     5    46 1   
    15     6     7 2   
    16     6     8 1   
    17     8    22 1   
    18     8    47 1   
    19     9    10 2   
    20     9    11 1   
    21    11    12 1   
    22    11    13 1   
    23    11    48 1   
    24    12    16 2   
    25    12    19 1   
    26    13    14 1   
    27    13    15 1   
    28    13    49 1   
    29    14    50 1   
    30    14    51 1   
    31    14    52 1   
    32    15    53 1   
    33    15    54 1   
    34    15    55 1   
    35    16    17 1   
    36    16    56 1   
    37    17    18 2   
    38    17    21 1   
    39    18    19 1   
    40    20    57 1   
    41    21    58 1   
    42    21    59 1   
    43    21    60 1   
    44    22    23 1   
    45    22    40 1   
    46    22    61 1   
    47    23    24 ar  
    48    23    28 ar  
    49    24    25 ar  
    50    24    62 1   
    51    25    26 ar  
    52    25    63 1   
    53    26    27 ar  
    54    26    29 1   
    55    27    28 ar  
    56    27    64 1   
    57    28    35 1   
    58    29    30 2   
    59    29    33 1   
    60    30    31 1   
    61    30    34 1   
    62    31    32 2   
    63    32    33 1   
    64    32    65 1   
    65    34    66 1   
    66    34    67 1   
    67    34    68 1   
    68    35    36 1   
    69    36    37 1   
    70    36    69 1   
    71    36    70 1   
    72    37    38 1   
    73    37    71 1   
    74    37    72 1   
    75    38    39 1   
    76    39    73 1   
    77    39    74 1   
    78    39    75 1   
    79    40    76 1   
    80    40    77 1   
    81    40    78 1   
@<TRIPOS>SUBSTRUCTURE
     1 QF3         1 TEMP              0 ****  ****    0 ROOT
