@<TRIPOS>MOLECULE
QF4
   60    62     1     0     0
SMALL
No Charge or Current Charge


@<TRIPOS>ATOM
      1 N12        -17.6730   -10.8600    18.0960 n3         1 QF4      -0.790500
      2 C13        -17.2360   -11.5990    16.8870 c6         1 QF4       0.204300
      3 C15        -16.7660    -9.3950    15.6420 c6         1 QF4      -0.151700
      4 C20        -16.9990    -9.5410    18.2000 c6         1 QF4       0.204300
      5 C22        -18.7760   -12.8970    21.1470 ca         1 QF4      -0.150000
      6 C24        -17.1210   -14.6560    21.4570 ca         1 QF4      -0.110000
      7 C28        -13.3650   -11.1310    18.7580 c3         1 QF4       0.225900
      8 C02        -14.1320   -13.3200    19.3360 c          1 QF4       0.644100
      9 C04        -14.7920   -15.7390    19.4810 c3         1 QF4       0.198800
     10 C06        -17.1620   -14.9460    20.0800 ca         1 QF4      -0.077300
     11 C07        -18.0120   -14.1970    19.2430 ca         1 QF4      -0.102000
     12 C08        -18.8100   -13.1640    19.7660 ca         1 QF4       0.230400
     13 C14        -17.4820   -10.7810    15.5930 c6         1 QF4      -0.098900
     14 C16        -17.0660    -8.5570    14.3810 c          1 QF4       0.610100
     15 C19        -17.2440    -8.6720    16.9400 c6         1 QF4      -0.098900
     16 C23        -17.9280   -13.6360    21.9890 ca         1 QF4      -0.088000
     17 C25        -13.9960   -16.8440    18.9130 c1         1 QF4       0.267900
     18 C29        -13.2350   -10.2170    17.5390 ca         1 QF4      -0.103300
     19 C30        -13.4170    -8.8260    17.6850 ca         1 QF4      -0.094000
     20 C31        -13.2960    -7.9720    16.5750 ca         1 QF4      -0.118000
     21 C32        -12.9830    -8.4990    15.3120 ca         1 QF4      -0.104000
     22 C33        -12.7890    -9.8820    15.1590 ca         1 QF4      -0.118000
     23 C34        -12.9120   -10.7380    16.2670 ca         1 QF4      -0.094000
     24 F11        -19.2490   -10.0700    19.8590 f          1 QF4      -0.305900
     25 N03        -14.5230   -14.4890    18.7530 ns         1 QF4      -0.502900
     26 N09        -19.6640   -12.4470    18.9160 ne         1 QF4      -0.654900
     27 N17        -18.3580    -8.2480    14.1380 nt         1 QF4      -0.603000
     28 N26        -13.3710   -17.7060    18.4380 n1         1 QF4      -0.438000
     29 O01        -13.9090   -13.1680    20.5260 o          1 QF4      -0.522000
     30 O18        -16.1940    -8.1760    13.6190 o          1 QF4      -0.614100
     31 O21        -20.2100   -10.2650    17.4930 o          1 QF4      -0.491000
     32 O27        -13.9180   -12.3980    18.3600 os         1 QF4      -0.467100
     33 S10        -19.3570   -10.9430    18.4740 s6         1 QF4       1.301500
     34 H1         -17.7420   -12.5710    16.8060 h1         1 QF4       0.073200
     35 H2         -16.1590   -11.8150    16.9560 h1         1 QF4       0.073200
     36 H3         -15.6800    -9.5490    15.6850 hc         1 QF4       0.083700
     37 H4         -15.9170    -9.6980    18.2980 h1         1 QF4       0.073200
     38 H5         -17.2990    -8.9830    19.0990 h1         1 QF4       0.073200
     39 H6         -19.4060   -12.1190    21.5670 ha         1 QF4       0.126000
     40 H7         -16.4720   -15.2260    22.1180 ha         1 QF4       0.118000
     41 H8         -12.3720   -11.2670    19.2090 h1         1 QF4       0.068700
     42 H9         -14.0100   -10.6500    19.5060 h1         1 QF4       0.068700
     43 H10        -14.4610   -15.6200    20.5210 h1         1 QF4       0.106700
     44 H11        -16.4620   -16.9830    20.0880 hc         1 QF4       0.067200
     45 H12        -16.6320   -16.3060    18.4820 hc         1 QF4       0.067200
     46 H13        -18.0610   -14.4190    18.1810 ha         1 QF4       0.122000
     47 H14        -18.5610   -10.6600    15.4310 hc         1 QF4       0.061700
     48 H15        -17.1110   -11.3540    14.7320 hc         1 QF4       0.061700
     49 H16        -16.7030    -7.7230    17.0500 hc         1 QF4       0.061700
     50 H17        -18.3080    -8.4090    16.8770 hc         1 QF4       0.061700
     51 H18        -17.9000   -13.4220    23.0560 ha         1 QF4       0.119000
     52 H19        -13.6560    -8.4050    18.6590 ha         1 QF4       0.126500
     53 H20        -13.4450    -6.9010    16.6950 ha         1 QF4       0.116000
     54 H21        -12.8920    -7.8380    14.4530 ha         1 QF4       0.115000
     55 H22        -12.5440   -10.2910    14.1810 ha         1 QF4       0.116000
     56 H23        -12.7550   -11.8060    16.1350 ha         1 QF4       0.126500
     57 H24        -14.6270   -14.4710    17.7480 hn         1 QF4       0.332500
     58 H26        -18.5900    -7.7010    13.3220 hn         1 QF4       0.316500
     59 H27        -19.0790    -8.5640    14.7680 hn         1 QF4       0.316500
     60 C05        -16.3050   -16.0680    19.5020 c3         1 QF4      -0.038100
@<TRIPOS>BOND
     1     1     2 1   
     2     1     4 1   
     3     1    33 1   
     4     2    13 1   
     5     2    34 1   
     6     2    35 1   
     7     3    13 1   
     8     3    14 1   
     9     3    15 1   
    10     3    36 1   
    11     4    15 1   
    12     4    37 1   
    13     4    38 1   
    14     5    12 ar  
    15     5    16 ar  
    16     5    39 1   
    17     6    10 ar  
    18     6    16 ar  
    19     6    40 1   
    20     7    18 1   
    21     7    32 1   
    22     7    41 1   
    23     7    42 1   
    24     8    25 1   
    25     8    29 2   
    26     8    32 1   
    27     9    17 1   
    28     9    25 1   
    29     9    43 1   
    30     9    60 1   
    31    10    11 ar  
    32    10    60 1   
    33    11    12 ar  
    34    11    46 1   
    35    12    26 1   
    36    13    47 1   
    37    13    48 1   
    38    14    27 1   
    39    14    30 2   
    40    15    49 1   
    41    15    50 1   
    42    16    51 1   
    43    17    28 3   
    44    18    19 ar  
    45    18    23 ar  
    46    19    20 ar  
    47    19    52 1   
    48    20    21 ar  
    49    20    53 1   
    50    21    22 ar  
    51    21    54 1   
    52    22    23 ar  
    53    22    55 1   
    54    23    56 1   
    55    24    33 1   
    56    25    57 1   
    57    26    33 2   
    58    27    58 1   
    59    27    59 1   
    60    31    33 2   
    61    44    60 1   
    62    45    60 1   
@<TRIPOS>SUBSTRUCTURE
     1 QF4         1 TEMP              0 ****  ****    0 ROOT
