@<TRIPOS>MOLECULE
QF4
   60    62     1     0     0
SMALL
abcg2


@<TRIPOS>ATOM
      1 N12        -17.9610   -11.7240    16.0870 n3         1 QF4      -0.790500
      2 C13        -18.0790   -10.5560    15.2020 c6         1 QF4       0.204300
      3 C15        -16.8430    -9.1710    16.8890 c6         1 QF4      -0.151700
      4 C20        -16.7940   -11.6650    16.9720 c6         1 QF4       0.204300
      5 C22        -19.3120   -12.8140    19.8230 ca         1 QF4      -0.150000
      6 C24        -17.7790   -13.6480    21.4910 ca         1 QF4      -0.110000
      7 C28        -12.9820   -10.9340    18.0840 c3         1 QF4       0.225900
      8 C02        -13.7960   -12.5260    19.6290 c          1 QF4       0.644100
      9 C04        -14.6840   -14.3630    20.9650 c3         1 QF4       0.198800
     10 C06        -17.1420   -14.4240    20.5270 ca         1 QF4      -0.077300
     11 C07        -17.6010   -14.3890    19.2170 ca         1 QF4      -0.102000
     12 C08        -18.6720   -13.5760    18.8480 ca         1 QF4       0.230400
     13 C14        -18.0670    -9.2440    15.9780 c6         1 QF4      -0.098900
     14 C16        -16.6730    -7.9000    17.7070 c          1 QF4       0.610100
     15 C19        -16.7850   -10.3960    17.8050 c6         1 QF4      -0.098900
     16 C23        -18.8590   -12.8560    21.1340 ca         1 QF4      -0.088000
     17 C25        -13.5260   -15.1610    21.4050 c1         1 QF4       0.267900
     18 C29        -13.1090   -10.6540    16.6150 ca         1 QF4      -0.103300
     19 C30        -13.3410    -9.3520    16.1830 ca         1 QF4      -0.094000
     20 C31        -13.4370    -9.0630    14.8270 ca         1 QF4      -0.118000
     21 C32        -13.3150   -10.0790    13.8900 ca         1 QF4      -0.104000
     22 C33        -13.0840   -11.3820    14.3160 ca         1 QF4      -0.118000
     23 C34        -12.9750   -11.6680    15.6690 ca         1 QF4      -0.094000
     24 F11        -20.1580   -11.3220    17.2590 f          1 QF4      -0.305900
     25 N03        -14.4170   -13.7260    19.7070 ns         1 QF4      -0.502900
     26 N09        -19.0900   -13.6240    17.5080 ne         1 QF4      -0.654900
     27 N17        -17.6120    -6.9550    17.5760 nt         1 QF4      -0.603000
     28 N26        -12.6220   -15.7880    21.7410 n1         1 QF4      -0.438000
     29 O01        -13.4150   -11.8820    20.5810 o          1 QF4      -0.522000
     30 O18        -15.6990    -7.7650    18.4380 o          1 QF4      -0.614100
     31 O21        -20.0800   -12.8240    15.3640 o          1 QF4      -0.491000
     32 O27        -13.6880   -12.1460    18.3590 os         1 QF4      -0.467100
     33 S10        -19.3020   -12.5120    16.5340 s6         1 QF4       1.301500
     34 H1         -18.9700   -10.6410    14.5840 h1         1 QF4       0.073200
     35 H2         -17.2200   -10.6010    14.5280 h1         1 QF4       0.073200
     36 H3         -15.9530    -9.2080    16.2470 hc         1 QF4       0.083700
     37 H4         -15.9180   -11.6930    16.3180 h1         1 QF4       0.073200
     38 H5         -16.7420   -12.5560    17.5910 h1         1 QF4       0.073200
     39 H6         -20.1700   -12.2050    19.5760 ha         1 QF4       0.126000
     40 H7         -17.4370   -13.6670    22.5180 ha         1 QF4       0.118000
     41 H8         -11.9330   -11.0520    18.3690 h1         1 QF4       0.068700
     42 H9         -13.3950   -10.1040    18.6630 h1         1 QF4       0.068700
     43 H10        -14.8440   -13.5960    21.7260 h1         1 QF4       0.106700
     44 H11        -16.0710   -15.7390    21.8480 hc         1 QF4       0.067200
     45 H12        -15.7750   -16.0340    20.1410 hc         1 QF4       0.067200
     46 H13        -17.1200   -14.9960    18.4580 ha         1 QF4       0.122000
     47 H14        -18.9900    -9.1540    16.5560 hc         1 QF4       0.061700
     48 H15        -18.0580    -8.4320    15.2480 hc         1 QF4       0.061700
     49 H16        -15.8790   -10.3740    18.4080 hc         1 QF4       0.061700
     50 H17        -17.6310   -10.3940    18.4990 hc         1 QF4       0.061700
     51 H18        -19.3620   -12.2610    21.8850 ha         1 QF4       0.119000
     52 H19        -13.4700    -8.5610    16.9110 ha         1 QF4       0.126500
     53 H20        -13.6250    -8.0460    14.5080 ha         1 QF4       0.116000
     54 H21        -13.3990    -9.8590    12.8340 ha         1 QF4       0.115000
     55 H22        -12.9880   -12.1790    13.5900 ha         1 QF4       0.116000
     56 H23        -12.7900   -12.6880    15.9820 ha         1 QF4       0.126500
     57 H24        -14.5620   -14.2590    18.8620 hn         1 QF4       0.332500
     58 H26        -17.5340    -6.0920    18.0900 hn         1 QF4       0.316500
     59 H27        -18.4210    -7.0690    16.9930 hn         1 QF4       0.316500
     60 C05        -15.9370   -15.2490    20.8820 c3         1 QF4      -0.038100
@<TRIPOS>BOND
     1     1     2 1   
     2     1     4 1   
     3     1    33 1   
     4     2    13 1   
     5     2    34 1   
     6     2    35 1   
     7     3    13 1   
     8     3    14 1   
     9     3    15 1   
    10     3    36 1   
    11     4    15 1   
    12     4    37 1   
    13     4    38 1   
    14     5    12 ar  
    15     5    16 ar  
    16     5    39 1   
    17     6    10 ar  
    18     6    16 ar  
    19     6    40 1   
    20     7    18 1   
    21     7    32 1   
    22     7    41 1   
    23     7    42 1   
    24     8    25 1   
    25     8    29 2   
    26     8    32 1   
    27     9    17 1   
    28     9    25 1   
    29     9    43 1   
    30     9    60 1   
    31    10    11 ar  
    32    10    60 1   
    33    11    12 ar  
    34    11    46 1   
    35    12    26 1   
    36    13    47 1   
    37    13    48 1   
    38    14    27 1   
    39    14    30 2   
    40    15    49 1   
    41    15    50 1   
    42    16    51 1   
    43    17    28 3   
    44    18    19 ar  
    45    18    23 ar  
    46    19    20 ar  
    47    19    52 1   
    48    20    21 ar  
    49    20    53 1   
    50    21    22 ar  
    51    21    54 1   
    52    22    23 ar  
    53    22    55 1   
    54    23    56 1   
    55    24    33 1   
    56    25    57 1   
    57    26    33 2   
    58    27    58 1   
    59    27    59 1   
    60    31    33 2   
    61    44    60 1   
    62    45    60 1   
@<TRIPOS>SUBSTRUCTURE
     1 QF4         1 TEMP              0 ****  ****    0 ROOT
