@<TRIPOS>MOLECULE
QF5
   34    36     1     0     0
SMALL
abcg2


@<TRIPOS>ATOM
      1 N1         -16.3180     4.3740    26.7450 nb         1 QF5      -0.640000
      2 C4         -23.1520     2.1020    30.3630 ca         1 QF5      -0.108500
      3 C5         -23.2040     2.3050    31.7400 ca         1 QF5      -0.102000
      4 C6         -22.7380     3.5010    32.2760 ca         1 QF5      -0.108500
      5 C7         -22.2210     4.4860    31.4410 ca         1 QF5      -0.093000
      6 C8         -18.5130     5.3480    26.9300 ca         1 QF5      -0.068000
      7 C10        -16.0270     5.2110    25.7780 ca         1 QF5       0.338900
      8 C13        -17.4650     8.0170    23.8080 ca         1 QF5      -0.111000
      9 C15        -19.1110     7.2690    25.4210 ca         1 QF5      -0.112000
     10 O          -19.3180     4.6480    29.6300 o          1 QF5      -0.563100
     11 C          -20.1180     5.0690    28.8070 c          1 QF5       0.600100
     12 N          -19.7880     5.3780    27.5190 ns         1 QF5      -0.154000
     13 C16        -18.2170     6.2760    25.8870 ca         1 QF5      -0.035000
     14 C14        -18.7390     8.1160    24.4060 ca         1 QF5      -0.090000
     15 C12        -16.5740     7.0710    24.2460 ca         1 QF5      -0.079000
     16 C11        -16.9280     6.1870    25.2910 ca         1 QF5      -0.083000
     17 C9         -17.5500     4.4390    27.3090 ca         1 QF5       0.311900
     18 C1         -21.5800     5.3390    29.1510 c3         1 QF5      -0.105100
     19 C2         -22.1620     4.2910    30.0620 ca         1 QF5      -0.079300
     20 C3         -22.6350     3.0890    29.5320 ca         1 QF5      -0.093000
     21 H1         -23.5170     1.1760    29.9370 ha         1 QF5       0.114500
     22 H2         -23.6090     1.5380    32.3880 ha         1 QF5       0.114000
     23 H3         -22.7790     3.6690    33.3450 ha         1 QF5       0.114500
     24 H4         -21.8610     5.4170    31.8620 ha         1 QF5       0.111500
     25 H5         -15.0390     5.1390    25.3320 h4         1 QF5       0.021100
     26 H6         -17.1950     8.6940    23.0080 ha         1 QF5       0.118000
     27 H7         -20.0890     7.3830    25.8680 ha         1 QF5       0.107000
     28 H8         -20.5340     5.7470    26.9500 hn         1 QF5       0.150000
     29 H9         -19.4310     8.8740    24.0620 ha         1 QF5       0.115000
     30 H10        -15.5890     6.9870    23.8030 ha         1 QF5       0.120000
     31 H11        -17.7580     3.7270    28.0930 h4         1 QF5       0.048100
     32 H12        -21.6030     6.3180    29.6380 hc         1 QF5       0.064700
     33 H13        -22.1710     5.4170    28.2380 hc         1 QF5       0.064700
     34 H14        -22.5980     2.9280    28.4610 ha         1 QF5       0.111500
@<TRIPOS>BOND
     1     1     7 ar  
     2     1    17 ar  
     3     2     3 ar  
     4     2    20 ar  
     5     2    21 1   
     6     3     4 ar  
     7     3    22 1   
     8     4     5 ar  
     9     4    23 1   
    10     5    19 ar  
    11     5    24 1   
    12     6    12 1   
    13     6    13 ar  
    14     6    17 ar  
    15     7    16 ar  
    16     7    25 1   
    17     8    14 ar  
    18     8    15 ar  
    19     8    26 1   
    20     9    13 ar  
    21     9    14 ar  
    22     9    27 1   
    23    10    11 2   
    24    11    12 1   
    25    11    18 1   
    26    12    28 1   
    27    13    16 ar  
    28    14    29 1   
    29    15    16 ar  
    30    15    30 1   
    31    17    31 1   
    32    18    19 1   
    33    18    32 1   
    34    18    33 1   
    35    19    20 ar  
    36    20    34 1   
@<TRIPOS>SUBSTRUCTURE
     1 QF5         1 TEMP              0 ****  ****    0 ROOT
