@<TRIPOS>MOLECULE
QF5
   34    36     1     0     0
SMALL
No Charge or Current Charge


@<TRIPOS>ATOM
      1 N1         -15.9630     5.0480    27.3550 nb         1 QF5      -0.640000
      2 C4         -23.2290     2.7610    29.2200 ca         1 QF5      -0.108500
      3 C5         -23.2700     2.1540    30.4860 ca         1 QF5      -0.102000
      4 C6         -22.6590     2.7830    31.5850 ca         1 QF5      -0.108500
      5 C7         -22.0090     4.0180    31.4170 ca         1 QF5      -0.093000
      6 C8         -18.3020     5.7460    27.4890 ca         1 QF5      -0.068000
      7 C10        -15.9510     5.4210    26.0570 ca         1 QF5       0.338900
      8 C13        -18.1280     6.8590    23.3990 ca         1 QF5      -0.111000
      9 C15        -19.4060     6.6670    25.4640 ca         1 QF5      -0.112000
     10 O          -18.9400     5.4700    30.4410 o          1 QF5      -0.563100
     11 C          -19.7820     5.7520    29.5960 c          1 QF5       0.600100
     12 N          -19.5060     5.8960    28.2420 ns         1 QF5      -0.154000
     13 C16        -18.2780     6.1260    26.1240 ca         1 QF5      -0.035000
     14 C14        -19.3280     7.0310    24.1080 ca         1 QF5      -0.090000
     15 C12        -17.0010     6.3240    24.0440 ca         1 QF5      -0.079000
     16 C11        -17.0750     5.9580    25.4020 ca         1 QF5      -0.083000
     17 C9         -17.1140     5.2090    28.0490 ca         1 QF5       0.311900
     18 C1         -21.2550     5.9690    29.9660 c3         1 QF5      -0.105100
     19 C2         -21.9660     4.6320    30.1500 ca         1 QF5      -0.079300
     20 C3         -22.5790     3.9960    29.0520 ca         1 QF5      -0.093000
     21 H1         -23.7010     2.2750    28.3690 ha         1 QF5       0.114500
     22 H2         -23.7730     1.1980    30.6160 ha         1 QF5       0.114000
     23 H3         -22.6890     2.3130    32.5660 ha         1 QF5       0.114500
     24 H4         -21.5360     4.4950    32.2730 ha         1 QF5       0.111500
     25 H5         -15.0110     5.2800    25.5250 h4         1 QF5       0.021100
     26 H6         -18.0710     7.1420    22.3500 ha         1 QF5       0.118000
     27 H7         -20.3480     6.8150    25.9850 ha         1 QF5       0.107000
     28 H8         -20.3110     6.1440    27.6820 hn         1 QF5       0.150000
     29 H9         -20.1990     7.4460    23.6070 ha         1 QF5       0.115000
     30 H10        -16.0740     6.1940    23.4890 ha         1 QF5       0.120000
     31 H11        -17.0670     4.8780    29.0830 h4         1 QF5       0.048100
     32 H12        -21.3010     6.5420    30.9000 hc         1 QF5       0.064700
     33 H13        -21.7570     6.5320    29.1710 hc         1 QF5       0.064700
     34 H14        -22.5530     4.4570    28.0670 ha         1 QF5       0.111500
@<TRIPOS>BOND
     1     1     7 ar  
     2     1    17 ar  
     3     2     3 ar  
     4     2    20 ar  
     5     2    21 1   
     6     3     4 ar  
     7     3    22 1   
     8     4     5 ar  
     9     4    23 1   
    10     5    19 ar  
    11     5    24 1   
    12     6    12 1   
    13     6    13 ar  
    14     6    17 ar  
    15     7    16 ar  
    16     7    25 1   
    17     8    14 ar  
    18     8    15 ar  
    19     8    26 1   
    20     9    13 ar  
    21     9    14 ar  
    22     9    27 1   
    23    10    11 2   
    24    11    12 1   
    25    11    18 1   
    26    12    28 1   
    27    13    16 ar  
    28    14    29 1   
    29    15    16 ar  
    30    15    30 1   
    31    17    31 1   
    32    18    19 1   
    33    18    32 1   
    34    18    33 1   
    35    19    20 ar  
    36    20    34 1   
@<TRIPOS>SUBSTRUCTURE
     1 QF5         1 TEMP              0 ****  ****    0 ROOT
