@<TRIPOS>MOLECULE
QF6
   23    24     1     0     0
SMALL
No Charge or Current Charge


@<TRIPOS>ATOM
      1 C01         38.2640    16.3800    29.3490 c3         1 QF6       0.143900
      2 C03         40.4690    17.5150    29.4660 ca         1 QF6       0.162100
      3 C04         41.5350    18.0080    30.2760 ca         1 QF6       0.279000
      4 C06         42.4970    18.3510    32.3810 ca         1 QF6       0.375900
      5 C07         43.6160    18.9730    31.8320 ca         1 QF6      -0.262000
      6 C08         43.6970    19.1190    30.4510 ca         1 QF6       0.351000
      7 C10         42.6450    18.6310    29.6420 ca         1 QF6      -0.098000
      8 C11         42.6790    18.7490    28.2310 ca         1 QF6      -0.129000
      9 C12         41.6260    18.2600    27.4500 ca         1 QF6      -0.078000
     10 C13         40.5240    17.6460    28.0590 ca         1 QF6      -0.207000
     11 N05         41.4820    17.8800    31.6310 nb         1 QF6      -0.665000
     12 N09         44.8090    19.7400    29.9390 nv         1 QF6      -1.095000
     13 O02         39.3830    16.9070    30.0840 os         1 QF6      -0.315100
     14 H013        37.5280    15.9480    30.0380 h1         1 QF6       0.042033
     15 H012        37.7670    17.1720    28.7740 h1         1 QF6       0.042033
     16 H011        38.5870    15.5900    28.6590 h1         1 QF6       0.042033
     17 H061        42.4050    18.2220    33.4590 h4         1 QF6       0.016100
     18 H071        44.4060    19.3340    32.4840 ha         1 QF6       0.119000
     19 H111        43.5200    19.2170    27.7250 ha         1 QF6       0.107000
     20 H121        41.6640    18.3560    26.3660 ha         1 QF6       0.112000
     21 H131        39.7250    17.2780    27.4230 ha         1 QF6       0.118000
     22 H092        45.4470    20.2190    30.5720 hn         1 QF6       0.470000
     23 H091        44.8150    20.0350    28.9660 hn         1 QF6       0.470000
@<TRIPOS>BOND
     1     1    13 1   
     2     1    14 1   
     3     1    15 1   
     4     1    16 1   
     5     2     3 ar  
     6     2    10 ar  
     7     2    13 1   
     8     3     7 ar  
     9     3    11 ar  
    10     4     5 ar  
    11     4    11 ar  
    12     4    17 1   
    13     5     6 ar  
    14     5    18 1   
    15     6     7 ar  
    16     6    12 1   
    17     7     8 ar  
    18     8     9 ar  
    19     8    19 1   
    20     9    10 ar  
    21     9    20 1   
    22    10    21 1   
    23    12    22 1   
    24    12    23 1   
@<TRIPOS>SUBSTRUCTURE
     1 QF6         1 TEMP              0 ****  ****    0 ROOT
