@<TRIPOS>MOLECULE
QF6
   23    24     1     0     0
SMALL
abcg2


@<TRIPOS>ATOM
      1 C01         38.3350    16.4340    29.3590 c3         1 QF6       0.143900
      2 C03         40.4650    17.5070    29.4480 ca         1 QF6       0.162100
      3 C04         41.5370    17.9990    30.2650 ca         1 QF6       0.279000
      4 C06         42.4450    18.3070    32.3390 ca         1 QF6       0.375900
      5 C07         43.5740    18.9470    31.8260 ca         1 QF6      -0.262000
      6 C08         43.6960    19.1260    30.4550 ca         1 QF6       0.351000
      7 C10         42.6430    18.6240    29.6200 ca         1 QF6      -0.098000
      8 C11         42.6720    18.7280    28.2090 ca         1 QF6      -0.129000
      9 C12         41.6310    18.2420    27.4630 ca         1 QF6      -0.078000
     10 C13         40.5190    17.6330    28.0770 ca         1 QF6      -0.207000
     11 N05         41.4440    17.8440    31.6120 nb         1 QF6      -0.665000
     12 N09         44.8010    19.7190    29.9170 nv         1 QF6      -1.095000
     13 O02         39.4380    16.9300    30.1170 os         1 QF6      -0.315100
     14 H013        37.6350    16.0300    30.0850 h1         1 QF6       0.042033
     15 H012        37.8560    17.2360    28.7920 h1         1 QF6       0.042033
     16 H011        38.6530    15.6440    28.6750 h1         1 QF6       0.042033
     17 H061        42.3610    18.1770    33.4140 h4         1 QF6       0.016100
     18 H071        44.3450    19.3090    32.4950 ha         1 QF6       0.119000
     19 H111        43.5180    19.1760    27.7070 ha         1 QF6       0.107000
     20 H121        41.6550    18.3190    26.3840 ha         1 QF6       0.112000
     21 H131        39.7160    17.2640    27.4580 ha         1 QF6       0.118000
     22 H092        45.4070    20.2200    30.5470 hn         1 QF6       0.470000
     23 H091        44.7430    20.1170    28.9940 hn         1 QF6       0.470000
@<TRIPOS>BOND
     1     1    13 1   
     2     1    14 1   
     3     1    15 1   
     4     1    16 1   
     5     2     3 ar  
     6     2    10 ar  
     7     2    13 1   
     8     3     7 ar  
     9     3    11 ar  
    10     4     5 ar  
    11     4    11 ar  
    12     4    17 1   
    13     5     6 ar  
    14     5    18 1   
    15     6     7 ar  
    16     6    12 1   
    17     7     8 ar  
    18     8     9 ar  
    19     8    19 1   
    20     9    10 ar  
    21     9    20 1   
    22    10    21 1   
    23    12    22 1   
    24    12    23 1   
@<TRIPOS>SUBSTRUCTURE
     1 QF6         1 TEMP              0 ****  ****    0 ROOT
