@<TRIPOS>MOLECULE
QF7
   79    82     1     0     0
SMALL
abcg2


@<TRIPOS>ATOM
      1 N1           7.0290     9.7160     4.0150 ns         1 QF7      -0.502900
      2 C1           6.9460    10.6330     3.0380 c          1 QF7       0.602100
      3 C2           8.2990    11.0800     2.4900 c5         1 QF7       0.036700
      4 O1           5.8880    11.1270     2.6590 o          1 QF7      -0.599100
      5 N2           8.2130    11.5240     1.0990 n          1 QF7      -0.389800
      6 C3           8.6950    12.9020     0.9340 c5         1 QF7       0.112000
      7 C4           9.5490    13.1220     2.1720 c5         1 QF7       0.149300
      8 C5           8.8040    12.3260     3.2410 c5         1 QF7      -0.123400
      9 O2          10.8450    12.5790     1.9050 oh         1 QF7      -0.655000
     10 C6           7.8580    10.6450     0.1470 c          1 QF7       0.604100
     11 C7           7.7130    11.1390    -1.2930 c3         1 QF7       0.050700
     12 O3           7.6330     9.4610     0.4170 o          1 QF7      -0.616100
     13 N3           8.2730    10.1100    -2.1500 ns         1 QF7      -0.481900
     14 C8           6.2310    11.4820    -1.6660 c3         1 QF7      -0.050000
     15 C9           5.3210    10.2540    -1.5560 c3         1 QF7      -0.089767
     16 C10          6.2120    11.9970    -3.1120 c3         1 QF7      -0.089767
     17 C11          5.7140    12.5890    -0.7390 c3         1 QF7      -0.089767
     18 C12          9.1690    10.3520    -3.1180 c          1 QF7       0.622100
     19 O4           9.5970    11.4670    -3.4160 o          1 QF7      -0.614100
     20 C13         11.0200     9.0800    -4.4250 cx         1 QF7      -0.114900
     21 C14          9.8400     9.2180    -5.3510 cx         1 QF7      -0.114900
     22 C15          9.6340     9.1440    -3.8720 cx         1 QF7       0.026000
     23 F1           9.1120     7.9510    -3.3860 f          1 QF7      -0.235000
     24 C16          5.8810     9.3290     4.8210 c3         1 QF7       0.173000
     25 C17          6.2080     8.0260     5.5790 c3         1 QF7      -0.168400
     26 C18          5.4340    10.4220     5.7770 ca         1 QF7      -0.099300
     27 C19          4.0960    10.4980     6.1550 ca         1 QF7      -0.098500
     28 C20          3.6660    11.4490     7.0700 ca         1 QF7      -0.096500
     29 C21          4.5720    12.3510     7.6410 ca         1 QF7      -0.006000
     30 C22          5.9140    12.2760     7.2500 ca         1 QF7      -0.096500
     31 C23          6.3370    11.3260     6.3310 ca         1 QF7      -0.098500
     32 C24          4.1210    13.3560     8.6090 cc         1 QF7      -0.176000
     33 C25          3.2540    13.2240     9.6680 cd         1 QF7       0.297300
     34 N4           3.0390    14.3820    10.3850 nd         1 QF7      -0.637000
     35 C26          3.7160    15.3820     9.9010 cc         1 QF7       0.420300
     36 S1           4.6790    14.9990     8.5270 ss         1 QF7      -0.041400
     37 C27          2.5740    11.9680    10.1110 c3         1 QF7      -0.120400
     38 C28          7.3740     8.2090     6.5290 c          1 QF7       0.594100
     39 N5           7.0990     8.1400     7.8370 ns         1 QF7      -0.493900
     40 O5           8.5140     8.4400     6.1020 o          1 QF7      -0.637100
     41 C29          8.1050     8.3750     8.8590 c3         1 QF7       0.094300
     42 H1           7.9340     9.3990     4.3390 hn         1 QF7       0.346500
     43 H2           9.0120    10.2580     2.5670 h1         1 QF7       0.084700
     44 H3           9.2780    13.0160     0.0230 h1         1 QF7       0.069700
     45 H4           7.8650    13.6090     0.9200 h1         1 QF7       0.069700
     46 H5           9.6240    14.1820     2.4230 h1         1 QF7       0.054700
     47 H6           9.4350    12.0670     4.0900 hc         1 QF7       0.066700
     48 H7           7.9600    12.9160     3.6060 hc         1 QF7       0.066700
     49 H8          11.3640    12.6200     2.7190 ho         1 QF7       0.445000
     50 H9           8.3040    12.0350    -1.4570 h1         1 QF7       0.085700
     51 H10          8.0320     9.1540    -1.9380 hn         1 QF7       0.350500
     52 H11          5.2640     9.8840    -0.5330 hc         1 QF7       0.041256
     53 H12          4.3130    10.5230    -1.8790 hc         1 QF7       0.041256
     54 H13          5.6680     9.4400    -2.1960 hc         1 QF7       0.041256
     55 H14          6.8540    12.8730    -3.2240 hc         1 QF7       0.041256
     56 H15          6.5480    11.2330    -3.8140 hc         1 QF7       0.041256
     57 H16          5.1940    12.2810    -3.3840 hc         1 QF7       0.041256
     58 H17          5.7080    12.2740     0.3050 hc         1 QF7       0.041256
     59 H18          6.3230    13.4910    -0.8290 hc         1 QF7       0.041256
     60 H19          4.6910    12.8480    -1.0210 hc         1 QF7       0.041256
     61 H21         11.6530     9.9400    -4.2570 hc         1 QF7       0.092950
     62 H22          9.6560    10.1730    -5.8240 hc         1 QF7       0.092950
     63 H23          9.5380     8.3410    -5.9090 hc         1 QF7       0.092950
     64 H24          5.0530     9.1120     4.1450 h1         1 QF7       0.085700
     65 H25          5.3130     7.7010     6.1070 hc         1 QF7       0.075700
     66 H26          6.4810     7.2560     4.8540 hc         1 QF7       0.075700
     67 H27          3.3770     9.8140     5.7200 ha         1 QF7       0.117500
     68 H28          2.6170    11.5090     7.3240 ha         1 QF7       0.119000
     69 H29          6.6350    12.9600     7.6790 ha         1 QF7       0.119000
     70 H30          7.3810    11.2900     6.0500 ha         1 QF7       0.117500
     71 H37          6.1480     7.9810     8.1250 hn         1 QF7       0.319500
     72 H38          7.6440     8.2330     9.8330 h1         1 QF7       0.044367
     73 H39          8.9360     7.6760     8.7490 h1         1 QF7       0.044367
     74 H40          8.4970     9.3910     8.7910 h1         1 QF7       0.044367
     75 H31          3.7000    16.3830    10.3090 h5         1 QF7       0.054100
     76 H32          2.5340    11.9370    11.2010 hc         1 QF7       0.051700
     77 H33          1.5470    11.9230     9.7390 hc         1 QF7       0.051700
     78 H34          3.0980    11.0840     9.7520 hc         1 QF7       0.051700
     79 H20         11.5010     8.1130    -4.3720 hc         1 QF7       0.092950
@<TRIPOS>BOND
     1     1     2 1   
     2     1    24 1   
     3     1    42 1   
     4     2     3 1   
     5     2     4 2   
     6     3     5 1   
     7     3     8 1   
     8     3    43 1   
     9     5     6 1   
    10     5    10 1   
    11     6     7 1   
    12     6    44 1   
    13     6    45 1   
    14     7     8 1   
    15     7     9 1   
    16     7    46 1   
    17     8    47 1   
    18     8    48 1   
    19     9    49 1   
    20    10    11 1   
    21    10    12 2   
    22    11    13 1   
    23    11    14 1   
    24    11    50 1   
    25    13    18 1   
    26    13    51 1   
    27    14    15 1   
    28    14    16 1   
    29    14    17 1   
    30    15    52 1   
    31    15    53 1   
    32    15    54 1   
    33    16    55 1   
    34    16    56 1   
    35    16    57 1   
    36    17    58 1   
    37    17    59 1   
    38    17    60 1   
    39    18    19 2   
    40    18    22 1   
    41    20    21 1   
    42    20    22 1   
    43    20    61 1   
    44    20    79 1   
    45    21    22 1   
    46    21    62 1   
    47    21    63 1   
    48    22    23 1   
    49    24    25 1   
    50    24    26 1   
    51    24    64 1   
    52    25    38 1   
    53    25    65 1   
    54    25    66 1   
    55    26    27 ar  
    56    26    31 ar  
    57    27    28 ar  
    58    27    67 1   
    59    28    29 ar  
    60    28    68 1   
    61    29    30 ar  
    62    29    32 1   
    63    30    31 ar  
    64    30    69 1   
    65    31    70 1   
    66    32    33 2   
    67    32    36 1   
    68    33    34 1   
    69    33    37 1   
    70    34    35 2   
    71    35    36 1   
    72    35    75 1   
    73    37    76 1   
    74    37    77 1   
    75    37    78 1   
    76    38    39 1   
    77    38    40 2   
    78    39    41 1   
    79    39    71 1   
    80    41    72 1   
    81    41    73 1   
    82    41    74 1   
@<TRIPOS>SUBSTRUCTURE
     1 QF7         1 TEMP              0 ****  ****    0 ROOT
