@<TRIPOS>MOLECULE
QF7
   79    82     1     0     0
SMALL
No Charge or Current Charge


@<TRIPOS>ATOM
      1 N1           7.1980     9.8530     4.1480 ns         1 QF7      -0.502900
      2 C1           6.9800    10.5680     2.9930 c          1 QF7       0.602100
      3 C2           8.3510    11.0610     2.4310 c5         1 QF7       0.036700
      4 O1           5.8650    10.7590     2.5220 o          1 QF7      -0.599100
      5 N2           8.3260    11.5330     1.0200 n          1 QF7      -0.389800
      6 C3           9.1470    12.7560     0.8210 c5         1 QF7       0.112000
      7 C4           9.8130    12.9770     2.2140 c5         1 QF7       0.149300
      8 C5           8.7510    12.3750     3.1660 c5         1 QF7      -0.123400
      9 O2          11.0650    12.2910     2.3290 oh         1 QF7      -0.655000
     10 C6           7.9620    10.6760    -0.0430 c          1 QF7       0.604100
     11 C7           7.7340    11.2760    -1.4740 c3         1 QF7       0.050700
     12 O3           7.7960     9.4780     0.1730 o          1 QF7      -0.616100
     13 N3           8.0400    10.2240    -2.4750 ns         1 QF7      -0.481900
     14 C8           6.2960    11.8910    -1.6960 c3         1 QF7      -0.050000
     15 C9           5.1930    10.8200    -1.4620 c3         1 QF7      -0.089767
     16 C10          6.1570    12.4290    -3.1490 c3         1 QF7      -0.089767
     17 C11          6.0370    13.0810    -0.7340 c3         1 QF7      -0.089767
     18 C12          8.8080    10.3920    -3.6060 c          1 QF7       0.622100
     19 O4           9.3300    11.4610    -3.8940 o          1 QF7      -0.614100
     20 C13          9.7780     7.9900    -3.9010 cx         1 QF7      -0.114900
     21 C14         10.3020     8.8060    -5.0580 cx         1 QF7      -0.114900
     22 C15          8.9510     9.1320    -4.4560 cx         1 QF7       0.026000
     23 F1           7.8350     8.8170    -5.1800 f          1 QF7      -0.235000
     24 C16          6.1450     9.2770     4.9790 c3         1 QF7       0.173000
     25 C17          6.6650     8.0640     5.7770 c3         1 QF7      -0.168400
     26 C18          5.5100    10.3250     5.8950 ca         1 QF7      -0.099300
     27 C19          4.1160    10.3250     6.0960 ca         1 QF7      -0.098500
     28 C20          3.5170    11.2750     6.9410 ca         1 QF7      -0.096500
     29 C21          4.3030    12.2350     7.6070 ca         1 QF7      -0.006000
     30 C22          5.6940    12.2440     7.3980 ca         1 QF7      -0.096500
     31 C23          6.2950    11.2960     6.5530 ca         1 QF7      -0.098500
     32 C24          3.6930    13.2330     8.4810 cc         1 QF7      -0.176000
     33 C25          2.8760    12.8920     9.5410 cd         1 QF7       0.297300
     34 N4           2.4220    13.9820    10.2700 nd         1 QF7      -0.637000
     35 C26          2.9200    15.1070     9.7620 cc         1 QF7       0.420300
     36 S1           3.9850    14.9420     8.3880 ss         1 QF7      -0.041400
     37 C27          2.4660    11.5080     9.9730 c3         1 QF7      -0.120400
     38 C28          7.8760     8.4150     6.6410 c          1 QF7       0.594100
     39 N5           7.6420     8.4540     7.9960 ns         1 QF7      -0.493900
     40 O5           8.9830     8.6250     6.1660 o          1 QF7      -0.637100
     41 C29          8.6570     8.7830     8.9980 c3         1 QF7       0.094300
     42 H1           8.1600     9.7350     4.4510 hn         1 QF7       0.346500
     43 H2           9.1030    10.2710     2.5610 h1         1 QF7       0.084700
     44 H3           9.9010    12.6310     0.0330 h1         1 QF7       0.069700
     45 H4           8.5150    13.6140     0.5600 h1         1 QF7       0.069700
     46 H5           9.9610    14.0490     2.4080 h1         1 QF7       0.054700
     47 H6           9.1340    12.1960     4.1770 hc         1 QF7       0.066700
     48 H7           7.8940    13.0530     3.2630 hc         1 QF7       0.066700
     49 H8          11.4420    12.5270     3.2050 ho         1 QF7       0.445000
     50 H9           8.4660    12.0810    -1.6040 h1         1 QF7       0.085700
     51 H10          7.6760     9.2910    -2.3120 hn         1 QF7       0.350500
     52 H11          5.2070    10.4510    -0.4300 hc         1 QF7       0.041256
     53 H12          4.1970    11.2400    -1.6470 hc         1 QF7       0.041256
     54 H13          5.3200     9.9620    -2.1320 hc         1 QF7       0.041256
     55 H14          6.9480    13.1550    -3.3750 hc         1 QF7       0.041256
     56 H15          6.2160    11.6200    -3.8870 hc         1 QF7       0.041256
     57 H16          5.1920    12.9290    -3.2930 hc         1 QF7       0.041256
     58 H17          6.0560    12.7670     0.3160 hc         1 QF7       0.041256
     59 H18          6.7830    13.8710    -0.8770 hc         1 QF7       0.041256
     60 H19          5.0500    13.5250    -0.9190 hc         1 QF7       0.041256
     61 H21         10.2520     8.1240    -2.9320 hc         1 QF7       0.092950
     62 H22         11.1270     9.4890    -4.8650 hc         1 QF7       0.092950
     63 H23         10.3190     8.3430    -6.0420 hc         1 QF7       0.092950
     64 H24          5.3610     8.9040     4.3030 h1         1 QF7       0.085700
     65 H25          5.8490     7.6810     6.4000 hc         1 QF7       0.075700
     66 H26          6.9680     7.2910     5.0610 hc         1 QF7       0.075700
     67 H27          3.4920     9.5890     5.5940 ha         1 QF7       0.117500
     68 H28          2.4380    11.2680     7.0700 ha         1 QF7       0.119000
     69 H29          6.3130    12.9850     7.8990 ha         1 QF7       0.119000
     70 H30          7.3740    11.3200     6.4160 ha         1 QF7       0.117500
     71 H37          6.6950     8.2690     8.3050 hn         1 QF7       0.319500
     72 H38          8.2110     8.7440    10.0000 h1         1 QF7       0.044367
     73 H39          9.4810     8.0600     8.9410 h1         1 QF7       0.044367
     74 H40          9.0450     9.7930     8.8130 h1         1 QF7       0.044367
     75 H31          2.7170    16.0970    10.1500 h5         1 QF7       0.054100
     76 H32          2.1910    11.4870    11.0340 hc         1 QF7       0.051700
     77 H33          1.6020    11.1590     9.3970 hc         1 QF7       0.051700
     78 H34          3.2830    10.7910     9.8320 hc         1 QF7       0.051700
     79 H20          9.4420     6.9760    -4.1060 hc         1 QF7       0.092950
@<TRIPOS>BOND
     1     1     2 1   
     2     1    24 1   
     3     1    42 1   
     4     2     3 1   
     5     2     4 2   
     6     3     5 1   
     7     3     8 1   
     8     3    43 1   
     9     5     6 1   
    10     5    10 1   
    11     6     7 1   
    12     6    44 1   
    13     6    45 1   
    14     7     8 1   
    15     7     9 1   
    16     7    46 1   
    17     8    47 1   
    18     8    48 1   
    19     9    49 1   
    20    10    11 1   
    21    10    12 2   
    22    11    13 1   
    23    11    14 1   
    24    11    50 1   
    25    13    18 1   
    26    13    51 1   
    27    14    15 1   
    28    14    16 1   
    29    14    17 1   
    30    15    52 1   
    31    15    53 1   
    32    15    54 1   
    33    16    55 1   
    34    16    56 1   
    35    16    57 1   
    36    17    58 1   
    37    17    59 1   
    38    17    60 1   
    39    18    19 2   
    40    18    22 1   
    41    20    21 1   
    42    20    22 1   
    43    20    61 1   
    44    20    79 1   
    45    21    22 1   
    46    21    62 1   
    47    21    63 1   
    48    22    23 1   
    49    24    25 1   
    50    24    26 1   
    51    24    64 1   
    52    25    38 1   
    53    25    65 1   
    54    25    66 1   
    55    26    27 ar  
    56    26    31 ar  
    57    27    28 ar  
    58    27    67 1   
    59    28    29 ar  
    60    28    68 1   
    61    29    30 ar  
    62    29    32 1   
    63    30    31 ar  
    64    30    69 1   
    65    31    70 1   
    66    32    33 2   
    67    32    36 1   
    68    33    34 1   
    69    33    37 1   
    70    34    35 2   
    71    35    36 1   
    72    35    75 1   
    73    37    76 1   
    74    37    77 1   
    75    37    78 1   
    76    38    39 1   
    77    38    40 2   
    78    39    41 1   
    79    39    71 1   
    80    41    72 1   
    81    41    73 1   
    82    41    74 1   
@<TRIPOS>SUBSTRUCTURE
     1 QF7         1 TEMP              0 ****  ****    0 ROOT
