@<TRIPOS>MOLECULE
QF8
   59    63     1     0     0
SMALL
abcg2


@<TRIPOS>ATOM
      1 C1           4.9730     3.5220    13.4430 cc         1 QF8       0.250300
      2 C2           3.5910     3.3790    13.1050 cc         1 QF8       0.162000
      3 C3           3.2770     2.0930    13.4510 cd         1 QF8      -0.181000
      4 N6          -2.7710    -1.0540    14.1980 na         1 QF8       0.098600
      5 C7           3.5700    -1.6420    15.1220 ca         1 QF8       0.407900
      6 C8           1.1230    -2.0510    14.9810 ca         1 QF8       0.272000
      7 C9           0.1390    -2.5770    15.8570 ca         1 QF8      -0.112000
      8 C10         -1.2000    -2.3250    15.6910 ca         1 QF8      -0.103000
      9 C11         -1.5590    -1.5050    14.6180 ca         1 QF8      -0.074200
     10 C12         -0.6050    -0.9840    13.7310 ca         1 QF8      -0.161900
     11 C13          0.7550    -1.2690    13.9040 ca         1 QF8      -0.037000
     12 C14         -1.3820    -0.2330    12.8060 cc         1 QF8       0.289900
     13 C16         -0.9070     0.5380    11.6410 c          1 QF8       0.552800
     14 C19          0.8350     5.2040    11.3840 c5         1 QF8      -0.115400
     15 C20          0.0880     6.0060    12.4800 c5         1 QF8       0.140800
     16 C21          0.5000     3.8860    13.3170 c5         1 QF8       0.137800
     17 O            0.2840     0.5640    11.3460 o          1 QF8      -0.611100
     18 N7          -1.8500     1.1900    10.9490 ns         1 QF8      -0.495900
     19 C17         -1.5470     1.9740     9.7770 c3         1 QF8       0.097300
     20 N5          -2.6600    -0.3010    13.1190 nd         1 QF8      -0.513100
     21 N4           2.4490    -2.4000    15.2560 nu         1 QF8      -0.932900
     22 N2           4.6940    -2.2050    15.5730 nb         1 QF8      -0.256000
     23 C6           5.7880    -1.4650    15.4700 ca         1 QF8       0.155900
     24 C5           5.8110    -0.1880    14.9430 ca         1 QF8      -0.267000
     25 N3           3.4700    -0.4330    14.5850 nb         1 QF8      -0.277000
     26 C4           4.5760     0.2860    14.5060 ca         1 QF8       0.288500
     27 N            4.4280     1.5470    13.9640 na         1 QF8       0.100300
     28 N1           5.4480     2.4110    13.9480 nd         1 QF8      -0.499800
     29 C            5.8050     4.7410    13.2720 c3         1 QF8      -0.120400
     30 N8           2.7900     4.3730    12.5860 nu         1 QF8      -0.911200
     31 C18          1.4580     4.0210    12.1250 c5         1 QF8       0.160500
     32 N9           0.1960     5.2470    13.7290 n7         1 QF8      -0.826400
     33 H1           2.3650     1.5270    13.3830 h4         1 QF8       0.189000
     34 H2           0.4590    -3.1930    16.6890 ha         1 QF8       0.115000
     35 H3          -1.9320    -2.7380    16.3720 ha         1 QF8       0.123000
     36 H4           1.4870    -0.8870    13.2120 ha         1 QF8       0.163000
     37 H5          -4.8050    -0.7320    14.2830 h1         1 QF8       0.058033
     38 H6          -4.3120    -2.3890    14.6760 h1         1 QF8       0.058033
     39 H7          -4.0510    -1.0820    15.8460 h1         1 QF8       0.058033
     40 H8           1.5780     5.8000    10.8520 hc         1 QF8       0.047700
     41 H9           0.1350     4.8320    10.6350 hc         1 QF8       0.047700
     42 H10          0.4950     7.0080    12.6140 h1         1 QF8       0.046700
     43 H11         -0.9620     6.1230    12.2050 h1         1 QF8       0.046700
     44 H12         -0.4140     3.3840    12.9810 h1         1 QF8       0.062200
     45 H13          0.8990     3.3080    14.1520 h1         1 QF8       0.062200
     46 H14         -2.8090     1.1130    11.2490 hn         1 QF8       0.334500
     47 H15         -2.4730     2.3920     9.3950 h1         1 QF8       0.039700
     48 H16         -0.8700     2.7980    10.0090 h1         1 QF8       0.039700
     49 H17         -1.0920     1.3700     8.9920 h1         1 QF8       0.039700
     50 H18          2.5900    -3.2450    15.7870 hn         1 QF8       0.511000
     51 H19          6.7070    -1.9140    15.8320 h4         1 QF8       0.025100
     52 H20          6.7200     0.3880    14.8750 ha         1 QF8       0.161000
     53 H21          6.8180     4.5740    13.6330 hc         1 QF8       0.048700
     54 H22          5.8640     5.0370    12.2220 hc         1 QF8       0.048700
     55 H23          5.3800     5.5840    13.8190 hc         1 QF8       0.048700
     56 H24          3.2830     4.9900    11.9560 hn         1 QF8       0.453000
     57 H25          1.4750     3.1120    11.5100 h1         1 QF8       0.067700
     58 H26          0.9970     5.5940    14.2410 hn         1 QF8       0.410000
     59 C15         -4.0570    -1.3350    14.7870 c3         1 QF8       0.076900
@<TRIPOS>BOND
     1     1     2 1   
     2     1    28 2   
     3     1    29 1   
     4     2     3 2   
     5     2    30 1   
     6     3    27 1   
     7     3    33 1   
     8     4     9 1   
     9     4    20 1   
    10     4    59 1   
    11     5    21 1   
    12     5    22 ar  
    13     5    25 ar  
    14     6     7 ar  
    15     6    11 ar  
    16     6    21 1   
    17     7     8 ar  
    18     7    34 1   
    19     8     9 ar  
    20     8    35 1   
    21     9    10 ar  
    22    10    11 ar  
    23    10    12 1   
    24    11    36 1   
    25    12    13 1   
    26    12    20 2   
    27    13    17 2   
    28    13    18 1   
    29    14    15 1   
    30    14    31 1   
    31    14    40 1   
    32    14    41 1   
    33    15    32 1   
    34    15    42 1   
    35    15    43 1   
    36    16    31 1   
    37    16    32 1   
    38    16    44 1   
    39    16    45 1   
    40    18    19 1   
    41    18    46 1   
    42    19    47 1   
    43    19    48 1   
    44    19    49 1   
    45    21    50 1   
    46    22    23 ar  
    47    23    24 ar  
    48    23    51 1   
    49    24    26 ar  
    50    24    52 1   
    51    25    26 ar  
    52    26    27 1   
    53    27    28 1   
    54    29    53 1   
    55    29    54 1   
    56    29    55 1   
    57    30    31 1   
    58    30    56 1   
    59    31    57 1   
    60    32    58 1   
    61    37    59 1   
    62    38    59 1   
    63    39    59 1   
@<TRIPOS>SUBSTRUCTURE
     1 QF8         1 TEMP              0 ****  ****    0 ROOT
