@<TRIPOS>MOLECULE
QF8
   59    63     1     0     0
SMALL
No Charge or Current Charge


@<TRIPOS>ATOM
      1 C1           5.0130     3.6500    13.7620 cc         1 QF8       0.250300
      2 C2           3.7560     3.3990    13.1340 cc         1 QF8       0.162000
      3 C3           3.4820     2.0820    13.3270 cd         1 QF8      -0.181000
      4 N6          -2.9520    -1.2600    14.3630 na         1 QF8       0.098600
      5 C7           3.5560    -1.7070    15.0770 ca         1 QF8       0.407900
      6 C8           1.0250    -2.1550    15.1110 ca         1 QF8       0.272000
      7 C9           0.0730    -2.8110    15.9310 ca         1 QF8      -0.112000
      8 C10         -1.3110    -2.5800    15.7670 ca         1 QF8      -0.103000
      9 C11         -1.7040    -1.6850    14.7640 ca         1 QF8      -0.074200
     10 C12         -0.8050    -1.0580    13.9600 ca         1 QF8      -0.161900
     11 C13          0.5760    -1.2750    14.0940 ca         1 QF8      -0.037000
     12 C14         -1.5900    -0.2320    13.0560 cc         1 QF8       0.289900
     13 C16         -0.9960     0.6540    11.9890 c          1 QF8       0.552800
     14 C19          1.3260     5.3070    11.0060 c5         1 QF8      -0.115400
     15 C20          0.0480     5.8710    11.6860 c5         1 QF8       0.140800
     16 C21          0.6220     4.0980    13.0330 c5         1 QF8       0.137800
     17 O            0.2020     0.7810    11.7570 o          1 QF8      -0.611100
     18 N7          -1.9380     1.3510    11.2570 ns         1 QF8      -0.495900
     19 C17         -1.6290     2.2630    10.1540 c3         1 QF8       0.097300
     20 N5          -2.9140    -0.3580    13.3050 nd         1 QF8      -0.513100
     21 N4           2.3890    -2.4190    15.3180 nu         1 QF8      -0.932900
     22 N2           4.6940    -2.3920    15.2560 nb         1 QF8      -0.256000
     23 C6           5.8340    -1.7180    15.0250 ca         1 QF8       0.155900
     24 C5           5.8200    -0.3740    14.6210 ca         1 QF8      -0.267000
     25 N3           3.4440    -0.4220    14.7080 nb         1 QF8      -0.277000
     26 C4           4.5760     0.2780    14.4630 ca         1 QF8       0.288500
     27 N            4.5840     1.6280    14.0610 na         1 QF8       0.100300
     28 N1           5.5460     2.5890    14.3430 nd         1 QF8      -0.499800
     29 C            5.6720     5.0040    13.7740 c3         1 QF8      -0.120400
     30 N8           2.9900     4.3520    12.4750 nu         1 QF8      -0.911200
     31 C18          1.6640     4.0390    11.8620 c5         1 QF8       0.160500
     32 N9           0.2300     5.5270    13.1090 n7         1 QF8      -0.826400
     33 H1           2.6430     1.4700    13.0230 h4         1 QF8       0.189000
     34 H2           0.4080    -3.4960    16.7060 ha         1 QF8       0.115000
     35 H3          -2.0410    -3.0800    16.4010 ha         1 QF8       0.123000
     36 H4           1.2780    -0.7940    13.4240 ha         1 QF8       0.163000
     37 H5          -5.0610    -1.2230    14.4910 h1         1 QF8       0.058033
     38 H6          -4.3010    -2.7950    14.8780 h1         1 QF8       0.058033
     39 H7          -4.2070    -1.4420    16.0470 h1         1 QF8       0.058033
     40 H8           2.1250     6.0590    10.9930 hc         1 QF8       0.047700
     41 H9           1.1320     5.0460     9.9600 hc         1 QF8       0.047700
     42 H10         -0.0560     6.9550    11.5340 h1         1 QF8       0.046700
     43 H11         -0.8560     5.3890    11.2870 h1         1 QF8       0.046700
     44 H12         -0.2540     3.4790    12.7900 h1         1 QF8       0.062200
     45 H13          1.0270     3.7250    13.9850 h1         1 QF8       0.062200
     46 H14         -2.9090     1.1920    11.5100 hn         1 QF8       0.334500
     47 H15         -2.5560     2.7190     9.7840 h1         1 QF8       0.039700
     48 H16         -0.9530     3.0530    10.5040 h1         1 QF8       0.039700
     49 H17         -1.1480     1.7070     9.3390 h1         1 QF8       0.039700
     50 H18          2.5710    -3.2920    15.8150 hn         1 QF8       0.511000
     51 H19          6.7670    -2.2610    15.1620 h4         1 QF8       0.025100
     52 H20          6.7540     0.1490    14.4350 ha         1 QF8       0.161000
     53 H21          6.6290     4.9770    14.3080 hc         1 QF8       0.048700
     54 H22          5.8670     5.3490    12.7520 hc         1 QF8       0.048700
     55 H23          5.0310     5.7430    14.2680 hc         1 QF8       0.048700
     56 H24          3.3940     5.2870    12.4040 hn         1 QF8       0.453000
     57 H25          1.6380     3.0950    11.2970 h1         1 QF8       0.067700
     58 H26          1.0490     6.0430    13.4540 hn         1 QF8       0.410000
     59 C15         -4.2090    -1.7070    14.9830 c3         1 QF8       0.076900
@<TRIPOS>BOND
     1     1     2 1   
     2     1    28 2   
     3     1    29 1   
     4     2     3 2   
     5     2    30 1   
     6     3    27 1   
     7     3    33 1   
     8     4     9 1   
     9     4    20 1   
    10     4    59 1   
    11     5    21 1   
    12     5    22 ar  
    13     5    25 ar  
    14     6     7 ar  
    15     6    11 ar  
    16     6    21 1   
    17     7     8 ar  
    18     7    34 1   
    19     8     9 ar  
    20     8    35 1   
    21     9    10 ar  
    22    10    11 ar  
    23    10    12 1   
    24    11    36 1   
    25    12    13 1   
    26    12    20 2   
    27    13    17 2   
    28    13    18 1   
    29    14    15 1   
    30    14    31 1   
    31    14    40 1   
    32    14    41 1   
    33    15    32 1   
    34    15    42 1   
    35    15    43 1   
    36    16    31 1   
    37    16    32 1   
    38    16    44 1   
    39    16    45 1   
    40    18    19 1   
    41    18    46 1   
    42    19    47 1   
    43    19    48 1   
    44    19    49 1   
    45    21    50 1   
    46    22    23 ar  
    47    23    24 ar  
    48    23    51 1   
    49    24    26 ar  
    50    24    52 1   
    51    25    26 ar  
    52    26    27 1   
    53    27    28 1   
    54    29    53 1   
    55    29    54 1   
    56    29    55 1   
    57    30    31 1   
    58    30    56 1   
    59    31    57 1   
    60    32    58 1   
    61    37    59 1   
    62    38    59 1   
    63    39    59 1   
@<TRIPOS>SUBSTRUCTURE
     1 QF8         1 TEMP              0 ****  ****    0 ROOT
