@<TRIPOS>MOLECULE
QF9
   35    37     1     0     0
SMALL
abcg2


@<TRIPOS>ATOM
      1 N1         -16.4340     4.0310    25.3430 nb         1 QF9      -0.652000
      2 C4         -20.4320     5.0670    27.5370 c          1 QF9       0.595100
      3 C5         -18.5720     4.9590    25.9460 ca         1 QF9      -0.077000
      4 C6         -17.7250     3.8990    25.7350 ca         1 QF9       0.307900
      5 C7         -15.9660     5.2470    25.1750 ca         1 QF9       0.359900
      6 C8         -16.7370     6.4210    25.3550 ca         1 QF9      -0.090000
      7 C10        -16.9850     8.8210    25.2940 ca         1 QF9      -0.105000
      8 C13        -18.1000     6.2820    25.7410 ca         1 QF9      -0.001000
      9 C15        -22.9100     4.7720    31.3890 ca         1 QF9      -0.004000
     10 C17        -22.6760     3.4530    31.7890 ca         1 QF9      -0.060000
     11 N2         -23.8100     6.4750    33.1070 n1         1 QF9      -0.439000
     12 C16        -23.4070     5.7130    32.3420 cg         1 QF9       0.320000
     13 C          -22.2010     2.5610    30.8430 ca         1 QF9       0.118000
     14 CL         -21.9030     0.9060    31.3110 cl         1 QF9      -0.193000
     15 C14        -22.6700     5.1810    30.0740 ca         1 QF9      -0.049000
     16 C2         -22.1930     4.2690    29.1410 ca         1 QF9      -0.067300
     17 C1         -21.9590     2.9510    29.5320 ca         1 QF9      -0.076000
     18 C3         -21.8980     4.6930    27.7290 c3         1 QF9      -0.111100
     19 O          -19.7940     5.6750    28.3850 o          1 QF9      -0.563100
     20 N          -19.9130     4.7070    26.3340 ns         1 QF9      -0.168000
     21 C12        -18.8930     7.4440    25.8760 ca         1 QF9      -0.086000
     22 C11        -18.3440     8.6810    25.6560 ca         1 QF9      -0.091000
     23 C9         -16.1970     7.7110    25.1420 ca         1 QF9      -0.085000
     24 H1         -18.0870     2.8880    25.8830 h4         1 QF9       0.020100
     25 H2         -14.9270     5.3450    24.8760 h4         1 QF9       0.023100
     26 H3         -16.5750     9.8090    25.1310 ha         1 QF9       0.118000
     27 H4         -22.8650     3.1410    32.8060 ha         1 QF9       0.144000
     28 H5         -22.8590     6.2060    29.7870 ha         1 QF9       0.133000
     29 H6         -21.5890     2.2290    28.8160 ha         1 QF9       0.130000
     30 H7         -22.4790     5.5830    27.4760 hc         1 QF9       0.069700
     31 H8         -22.1840     3.9070    27.0280 hc         1 QF9       0.069700
     32 H9         -20.4570     4.0900    25.7500 hn         1 QF9       0.155000
     33 H10        -19.9340     7.3510    26.1490 ha         1 QF9       0.120000
     34 H11        -18.9590     9.5670    25.7600 ha         1 QF9       0.117000
     35 H12        -15.1560     7.8010    24.8550 ha         1 QF9       0.119000
@<TRIPOS>BOND
     1     1     4 ar  
     2     1     5 ar  
     3     2    18 1   
     4     2    19 2   
     5     2    20 1   
     6     3     4 ar  
     7     3     8 ar  
     8     3    20 1   
     9     4    24 1   
    10     5     6 ar  
    11     5    25 1   
    12     6     8 ar  
    13     6    23 ar  
    14     7    22 ar  
    15     7    23 ar  
    16     7    26 1   
    17     8    21 ar  
    18     9    10 ar  
    19     9    12 1   
    20     9    15 ar  
    21    10    13 ar  
    22    10    27 1   
    23    11    12 3   
    24    13    14 1   
    25    13    17 ar  
    26    15    16 ar  
    27    15    28 1   
    28    16    17 ar  
    29    16    18 1   
    30    17    29 1   
    31    18    30 1   
    32    18    31 1   
    33    20    32 1   
    34    21    22 ar  
    35    21    33 1   
    36    22    34 1   
    37    23    35 1   
@<TRIPOS>SUBSTRUCTURE
     1 QF9         1 TEMP              0 ****  ****    0 ROOT
