@<TRIPOS>MOLECULE
QF9
   35    37     1     0     0
SMALL
No Charge or Current Charge


@<TRIPOS>ATOM
      1 N1         -16.3600     4.0880    26.2770 nb         1 QF9      -0.652000
      2 C4         -20.7010     5.7090    27.6280 c          1 QF9       0.595100
      3 C5         -18.5660     5.1190    26.3810 ca         1 QF9      -0.077000
      4 C6         -17.6770     4.0420    26.5780 ca         1 QF9       0.307900
      5 C7         -15.8790     5.2360    25.7480 ca         1 QF9       0.359900
      6 C8         -16.6850     6.3610    25.4860 ca         1 QF9      -0.090000
      7 C10        -16.9420     8.6270    24.6280 ca         1 QF9      -0.105000
      8 C13        -18.0630     6.3100    25.7980 ca         1 QF9      -0.001000
      9 C15        -22.7140     4.4140    31.5100 ca         1 QF9      -0.004000
     10 C17        -22.5840     3.0120    31.5130 ca         1 QF9      -0.060000
     11 N2         -23.2130     5.6780    33.7320 n1         1 QF9      -0.439000
     12 C16        -22.9880     5.1170    32.7330 cg         1 QF9       0.320000
     13 C          -22.3140     2.3310    30.3160 ca         1 QF9       0.118000
     14 Cl         -22.1480     0.5800    30.3230 cl         1 QF9      -0.193000
     15 C14        -22.5740     5.1260    30.3020 ca         1 QF9      -0.049000
     16 C2         -22.3040     4.4440    29.0980 ca         1 QF9      -0.067300
     17 C1         -22.1740     3.0410    29.1130 ca         1 QF9      -0.076000
     18 C3         -22.1450     5.2200    27.7940 c3         1 QF9      -0.111100
     19 O          -20.2700     6.6810    28.2370 o          1 QF9      -0.563100
     20 N          -19.9230     4.9480    26.7690 ns         1 QF9      -0.168000
     21 C12        -18.8770     7.4240    25.4910 ca         1 QF9      -0.086000
     22 C11        -18.3160     8.5760    24.9130 ca         1 QF9      -0.091000
     23 C9         -16.1260     7.5190    24.9100 ca         1 QF9      -0.085000
     24 H1         -18.0330     3.1080    27.0130 h4         1 QF9       0.020100
     25 H2         -14.8150     5.2470    25.5150 h4         1 QF9       0.023100
     26 H3         -16.5110     9.5200    24.1810 ha         1 QF9       0.118000
     27 H4         -22.6890     2.4510    32.4390 ha         1 QF9       0.144000
     28 H5         -22.6710     6.2110    30.2980 ha         1 QF9       0.133000
     29 H6         -21.9640     2.4980    28.1940 ha         1 QF9       0.130000
     30 H7         -22.8100     6.0920    27.8030 hc         1 QF9       0.069700
     31 H8         -22.4140     4.5710    26.9520 hc         1 QF9       0.069700
     32 H9         -20.3800     4.1320    26.3810 hn         1 QF9       0.155000
     33 H10        -19.9460     7.4100    25.6810 ha         1 QF9       0.120000
     34 H11        -18.9490     9.4310    24.6830 ha         1 QF9       0.117000
     35 H12        -15.0650     7.5590    24.6750 ha         1 QF9       0.119000
@<TRIPOS>BOND
     1     1     4 ar  
     2     1     5 ar  
     3     2    18 1   
     4     2    19 2   
     5     2    20 1   
     6     3     4 ar  
     7     3     8 ar  
     8     3    20 1   
     9     4    24 1   
    10     5     6 ar  
    11     5    25 1   
    12     6     8 ar  
    13     6    23 ar  
    14     7    22 ar  
    15     7    23 ar  
    16     7    26 1   
    17     8    21 ar  
    18     9    10 ar  
    19     9    12 1   
    20     9    15 ar  
    21    10    13 ar  
    22    10    27 1   
    23    11    12 3   
    24    13    14 1   
    25    13    17 ar  
    26    15    16 ar  
    27    15    28 1   
    28    16    17 ar  
    29    16    18 1   
    30    17    29 1   
    31    18    30 1   
    32    18    31 1   
    33    20    32 1   
    34    21    22 ar  
    35    21    33 1   
    36    22    34 1   
    37    23    35 1   
@<TRIPOS>SUBSTRUCTURE
     1 QF9         1 TEMP              0 ****  ****    0 ROOT
