@<TRIPOS>MOLECULE
QFB
   60    64     1     0     0
SMALL
abcg2


@<TRIPOS>ATOM
      1 C1          -2.8310    -1.1950    14.1330 cc         1 QFB       0.346800
      2 C2          -1.2170    -0.4540    12.8700 cd         1 QFB      -0.084600
      3 C3          -0.5920    -1.0450    13.9660 cc         1 QFB      -0.040000
      4 N6           5.3550     2.4010    14.0460 nc         1 QFB      -0.493800
      5 C7           0.7350    -1.2400    14.3890 cc         1 QFB      -0.106000
      6 C8           3.4030    -1.4250    15.8690 ca         1 QFB       0.401900
      7 C9           5.6320    -1.2300    16.2180 ca         1 QFB       0.153900
      8 C10          5.6780    -0.0450    15.5010 ca         1 QFB      -0.256000
      9 C11          4.4530     0.3900    14.9970 ca         1 QFB       0.289500
     10 C12          3.1190     2.0960    13.8180 cc         1 QFB      -0.183000
     11 C13          3.4220     3.3140    13.2560 cd         1 QFB       0.177000
     12 C14          4.8350     3.4450    13.4270 cd         1 QFB       0.235900
     13 C15          1.1800     3.9180    12.4340 c6         1 QFB       0.219500
     14 C16          0.6020     4.9010    11.4190 c6         1 QFB      -0.115400
     15 C19          0.3320     3.9160    13.7240 c6         1 QFB       0.131500
     16 C20         -0.5740     0.1370    11.7000 c          1 QFB       0.645300
     17 C21         -0.9400     1.0990     9.4710 c3         1 QFB       0.098300
     18 O1           0.6610     0.1920    11.5820 o          1 QFB      -0.635100
     19 N9          -1.4110     0.6120    10.7520 ns         1 QFB      -0.497900
     20 N           -2.5860    -0.5650    13.0090 nd         1 QFB      -0.539300
     21 C6           0.9770    -1.8970    15.5720 cd         1 QFB       0.320000
     22 C5          -0.1280    -2.3980    16.3360 cd         1 QFB      -0.170000
     23 C4          -1.4030    -2.2020    15.9280 cc         1 QFB      -0.081000
     24 N1          -1.6400    -1.5190    14.7610 na         1 QFB       0.027200
     25 C           -4.1570    -1.5420    14.6990 c3         1 QFB      -0.098400
     26 N2           2.2500    -2.1360    16.0850 nu         1 QFB      -0.933900
     27 N4           3.3300    -0.2950    15.1710 nb         1 QFB      -0.275000
     28 N3           4.5160    -1.9360    16.4200 nb         1 QFB      -0.246000
     29 N5           4.3070     1.5780    14.2900 na         1 QFB       0.086300
     30 N8           0.5220     5.1680    14.4610 n8         1 QFB      -0.994200
     31 C18         -1.1370     3.7190    13.3540 c6         1 QFB       0.156600
     32 O           -1.6140     4.6830    12.4230 os         1 QFB      -0.441000
     33 C17         -0.8810     4.6350    11.2000 c6         1 QFB       0.158600
     34 H1           1.5260    -0.8610    13.7710 ha         1 QFB       0.181000
     35 H2           6.5380    -1.6330    16.6560 h4         1 QFB       0.029100
     36 H3           6.5930     0.5040    15.3540 ha         1 QFB       0.162000
     37 H4           2.1980     1.5610    13.9340 h4         1 QFB       0.186000
     38 H5           5.4640     4.2640    13.1130 h4         1 QFB       0.042100
     39 H6           1.1140     2.9050    12.0120 h1         1 QFB       0.054700
     40 H7           1.1300     4.8030    10.4670 hc         1 QFB       0.058200
     41 H8           0.7420     5.9220    11.7780 hc         1 QFB       0.058200
     42 H9           0.6120     3.0430    14.3260 h1         1 QFB       0.024700
     43 H10         -1.7730     1.5660     8.9500 h1         1 QFB       0.039033
     44 H11         -0.1520     1.8390     9.6080 h1         1 QFB       0.039033
     45 H12         -0.5440     0.2890     8.8510 h1         1 QFB       0.039033
     46 H13         -2.3990     0.4750    10.8960 hn         1 QFB       0.336500
     47 H14          0.0550    -2.9280    17.2610 ha         1 QFB       0.133000
     48 H15         -2.2650    -2.5500    16.4750 h4         1 QFB       0.149000
     49 H16         -4.9350    -1.1810    14.0290 hc         1 QFB       0.057700
     50 H17         -4.2690    -2.6230    14.8170 hc         1 QFB       0.057700
     51 H18         -4.3010    -1.0860    15.6830 hc         1 QFB       0.057700
     52 H19          2.3410    -2.8820    16.7580 hn         1 QFB       0.517000
     53 H20          3.0060     4.8390    12.0040 hn         1 QFB       0.467000
     54 H21          0.1060     5.0880    15.3820 hn         1 QFB       0.401000
     55 H22          1.5160     5.3210    14.5960 hn         1 QFB       0.401000
     56 H24         -1.7620     3.8120    14.2430 h1         1 QFB       0.049200
     57 H25         -1.2700     2.7090    12.9430 h1         1 QFB       0.049200
     58 H26         -1.3190     5.3900    10.5480 h1         1 QFB       0.043700
     59 H27         -1.0220     3.6530    10.7340 h1         1 QFB       0.043700
     60 N7           2.5750     4.2540    12.7030 nu         1 QFB      -0.931200
@<TRIPOS>BOND
     1     1    20 2   
     2     1    24 1   
     3     1    25 1   
     4     2     3 2   
     5     2    16 1   
     6     2    20 1   
     7     3     5 1   
     8     3    24 1   
     9     4    12 2   
    10     4    29 1   
    11     5    21 2   
    12     5    34 1   
    13     6    26 1   
    14     6    27 ar  
    15     6    28 ar  
    16     7     8 ar  
    17     7    28 ar  
    18     7    35 1   
    19     8     9 ar  
    20     8    36 1   
    21     9    27 ar  
    22     9    29 1   
    23    10    11 2   
    24    10    29 1   
    25    10    37 1   
    26    11    12 1   
    27    11    60 1   
    28    12    38 1   
    29    13    14 1   
    30    13    15 1   
    31    13    39 1   
    32    13    60 1   
    33    14    33 1   
    34    14    40 1   
    35    14    41 1   
    36    15    30 1   
    37    15    31 1   
    38    15    42 1   
    39    16    18 2   
    40    16    19 1   
    41    17    19 1   
    42    17    43 1   
    43    17    44 1   
    44    17    45 1   
    45    19    46 1   
    46    21    22 1   
    47    21    26 1   
    48    22    23 2   
    49    22    47 1   
    50    23    24 1   
    51    23    48 1   
    52    25    49 1   
    53    25    50 1   
    54    25    51 1   
    55    26    52 1   
    56    30    54 1   
    57    30    55 1   
    58    31    32 1   
    59    31    56 1   
    60    31    57 1   
    61    32    33 1   
    62    33    58 1   
    63    33    59 1   
    64    53    60 1   
@<TRIPOS>SUBSTRUCTURE
     1 QFB         1 TEMP              0 ****  ****    0 ROOT
