@<TRIPOS>MOLECULE
QFB
   60    64     1     0     0
SMALL
No Charge or Current Charge


@<TRIPOS>ATOM
      1 C1          -3.0390    -1.7890    14.4390 cc         1 QFB       0.346800
      2 C2          -1.5730    -0.7350    13.1670 cd         1 QFB      -0.084600
      3 C3          -0.8580    -1.3070    14.2050 cc         1 QFB      -0.040000
      4 N6           5.3600     2.7150    14.6880 nc         1 QFB      -0.493800
      5 C7           0.5290    -1.3370    14.5110 cc         1 QFB      -0.106000
      6 C8           3.3810    -1.4300    15.8210 ca         1 QFB       0.401900
      7 C9           5.6510    -1.3350    15.9830 ca         1 QFB       0.153900
      8 C10          5.6290    -0.0580    15.4030 ca         1 QFB      -0.256000
      9 C11          4.3810     0.5090    15.0470 ca         1 QFB       0.289500
     10 C12          3.2540     2.2600    13.7400 cc         1 QFB      -0.183000
     11 C13          3.6050     3.5480    13.4700 cd         1 QFB       0.177000
     12 C14          4.8870     3.7760    14.0530 cd         1 QFB       0.235900
     13 C15          1.5220     4.1890    12.1890 c6         1 QFB       0.219500
     14 C16          1.2060     5.2630    11.1160 c6         1 QFB      -0.115400
     15 C19          0.3990     4.1500    13.2930 c6         1 QFB       0.131500
     16 C20         -0.9540     0.0680    12.0570 c          1 QFB       0.645300
     17 C21         -1.6090     1.2050     9.9060 c3         1 QFB       0.098300
     18 O1           0.2310     0.3520    11.9500 o          1 QFB      -0.635100
     19 N9          -1.8930     0.4670    11.1380 ns         1 QFB      -0.497900
     20 N           -2.9370    -1.0530    13.3320 nd         1 QFB      -0.539300
     21 C6           0.9160    -2.0370    15.6330 cd         1 QFB       0.320000
     22 C5          -0.1010    -2.7270    16.4020 cd         1 QFB      -0.170000
     23 C4          -1.4660    -2.7000    16.0930 cc         1 QFB      -0.081000
     24 N1          -1.7830    -1.9220    14.9730 na         1 QFB       0.027200
     25 C           -4.3130    -2.3630    14.9930 c3         1 QFB      -0.098400
     26 N2           2.2230    -2.1610    16.0480 nu         1 QFB      -0.933900
     27 N4           3.2600    -0.2110    15.2740 nb         1 QFB      -0.275000
     28 N3           4.5190    -2.0280    16.1980 nb         1 QFB      -0.246000
     29 N5           4.3470     1.7960    14.4700 na         1 QFB       0.086300
     30 N8           0.5040     5.3110    14.2310 n8         1 QFB      -0.994200
     31 C18         -1.0000     4.0400    12.6070 c6         1 QFB       0.156600
     32 O           -1.1860     5.0870    11.6240 os         1 QFB      -0.441000
     33 C17         -0.2190     5.0630    10.5520 c6         1 QFB       0.158600
     34 H1           1.2430    -0.8490    13.8650 ha         1 QFB       0.181000
     35 H2           6.5850    -1.8110    16.2780 h4         1 QFB       0.029100
     36 H3           6.5610     0.4740    15.2360 ha         1 QFB       0.162000
     37 H4           2.3800     1.6710    13.4990 h4         1 QFB       0.186000
     38 H5           5.4690     4.6880    14.0390 h4         1 QFB       0.042100
     39 H6           1.5380     3.2090    11.6870 h1         1 QFB       0.054700
     40 H7           1.9370     5.2060    10.2980 hc         1 QFB       0.058200
     41 H8           1.2860     6.2700    11.5450 hc         1 QFB       0.058200
     42 H9           0.5610     3.2500    13.9040 h1         1 QFB       0.024700
     43 H10         -2.4780     1.8180     9.6390 h1         1 QFB       0.039033
     44 H11         -0.7370     1.8570    10.0470 h1         1 QFB       0.039033
     45 H12         -1.4020     0.4950     9.0950 h1         1 QFB       0.039033
     46 H13         -2.8430     0.1700    11.3340 hn         1 QFB       0.336500
     47 H14          0.2060    -3.2970    17.2710 ha         1 QFB       0.133000
     48 H15         -2.2580    -3.2010    16.6360 h4         1 QFB       0.149000
     49 H16         -5.1750    -2.0660    14.3840 hc         1 QFB       0.057700
     50 H17         -4.2710    -3.4580    15.0070 hc         1 QFB       0.057700
     51 H18         -4.4860    -2.0110    16.0160 hc         1 QFB       0.057700
     52 H19          2.3740    -2.9510    16.6750 hn         1 QFB       0.517000
     53 H20          3.3120     5.3690    12.5570 hn         1 QFB       0.467000
     54 H21          0.2990     4.9850    15.1810 hn         1 QFB       0.401000
     55 H22          1.5070     5.5300    14.2680 hn         1 QFB       0.401000
     56 H24         -1.7970     4.1070    13.3610 h1         1 QFB       0.049200
     57 H25         -1.0920     3.0640    12.1110 h1         1 QFB       0.049200
     58 H26         -0.4560     5.8660     9.8400 h1         1 QFB       0.043700
     59 H27         -0.2890     4.1040    10.0180 h1         1 QFB       0.043700
     60 N7           2.8570     4.4790    12.7740 nu         1 QFB      -0.931200
@<TRIPOS>BOND
     1     1    20 2   
     2     1    24 1   
     3     1    25 1   
     4     2     3 2   
     5     2    16 1   
     6     2    20 1   
     7     3     5 1   
     8     3    24 1   
     9     4    12 2   
    10     4    29 1   
    11     5    21 2   
    12     5    34 1   
    13     6    26 1   
    14     6    27 ar  
    15     6    28 ar  
    16     7     8 ar  
    17     7    28 ar  
    18     7    35 1   
    19     8     9 ar  
    20     8    36 1   
    21     9    27 ar  
    22     9    29 1   
    23    10    11 2   
    24    10    29 1   
    25    10    37 1   
    26    11    12 1   
    27    11    60 1   
    28    12    38 1   
    29    13    14 1   
    30    13    15 1   
    31    13    39 1   
    32    13    60 1   
    33    14    33 1   
    34    14    40 1   
    35    14    41 1   
    36    15    30 1   
    37    15    31 1   
    38    15    42 1   
    39    16    18 2   
    40    16    19 1   
    41    17    19 1   
    42    17    43 1   
    43    17    44 1   
    44    17    45 1   
    45    19    46 1   
    46    21    22 1   
    47    21    26 1   
    48    22    23 2   
    49    22    47 1   
    50    23    24 1   
    51    23    48 1   
    52    25    49 1   
    53    25    50 1   
    54    25    51 1   
    55    26    52 1   
    56    30    54 1   
    57    30    55 1   
    58    31    32 1   
    59    31    56 1   
    60    31    57 1   
    61    32    33 1   
    62    33    58 1   
    63    33    59 1   
    64    53    60 1   
@<TRIPOS>SUBSTRUCTURE
     1 QFB         1 TEMP              0 ****  ****    0 ROOT
