@<TRIPOS>MOLECULE
QFC
   72    77     1     0     0
SMALL
abcg2


@<TRIPOS>ATOM
      1 N1         142.5060   143.4700    65.5460 n3         1 QFC      -0.721600
      2 N3         133.1190   140.8460    72.4870 ns         1 QFC      -0.483500
      3 C4         147.0450   143.9090    67.6700 ca         1 QFC      -0.172000
      4 C5         145.8240   144.5850    67.9010 ca         1 QFC       0.339000
      5 C6         144.8530   144.1250    65.6830 c6         1 QFC       0.226300
      6 C7         143.8650   143.0850    65.1850 c6         1 QFC       0.149300
      7 C8         141.5150   142.5480    64.9920 c3         1 QFC       0.212100
      8 C10        139.7400   144.2820    64.5690 ca         1 QFC      -0.095500
      9 C15        137.1750   146.0330    67.9670 ca         1 QFC      -0.158000
     10 C17        137.1800   146.3150    70.3830 ca         1 QFC      -0.071000
     11 C20        134.5720   143.7980    69.6770 c5         1 QFC       0.158300
     12 C21        135.6590   144.7570    69.3030 ca         1 QFC      -0.116300
     13 C22        133.6340   143.2030    71.9780 c6         1 QFC       0.044700
     14 C24        131.3140   142.5130    72.5760 c6         1 QFC      -0.160400
     15 C26        134.0840   141.7460    72.0820 c          1 QFC       0.552000
     16 C28        139.1580   142.3720    65.8920 ca         1 QFC      -0.095500
     17 N          144.7220   144.3270    67.1260 nh         1 QFC      -0.835400
     18 C          145.8470   145.5060    68.9720 ca         1 QFC       0.080000
     19 O          135.5930   144.4360    66.9880 os         1 QFC      -0.350100
     20 C1         146.9490   145.7260    69.7620 ca         1 QFC      -0.067000
     21 C11        138.4610   144.7930    64.7440 ca         1 QFC      -0.096000
     22 C12        137.5140   144.0960    65.4940 ca         1 QFC      -0.131300
     23 C14        136.1570   145.0790    68.0440 ca         1 QFC       0.146100
     24 C16        137.6740   146.6370    69.1260 ca         1 QFC      -0.086000
     25 C18        136.1650   145.3690    70.4400 ca         1 QFC      -0.120600
     26 C19        135.4390   144.8360    71.6180 c          1 QFC       0.586600
     27 C2         148.1370   145.0330    69.5020 ca         1 QFC      -0.053000
     28 C23        132.1610   143.3030    71.5860 c6         1 QFC      -0.082400
     29 C25        131.7800   141.0930    72.7510 c          1 QFC       0.574000
     30 C27        137.8720   142.8750    66.0590 ca         1 QFC      -0.096000
     31 C29        142.3970   143.5930    66.9950 c6         1 QFC       0.149300
     32 C3         148.1690   144.1230    68.4370 ca         1 QFC      -0.042000
     33 C30        143.3560   144.6440    67.5340 c6         1 QFC       0.226300
     34 C31        149.2910   145.2630    70.2960 cg         1 QFC       0.332000
     35 C9         140.1080   143.0680    65.1490 ca         1 QFC      -0.079300
     36 F          144.7510   146.2660    69.2330 f          1 QFC      -0.186000
     37 N2         134.5130   143.9560    71.1270 n          1 QFC      -0.414800
     38 N4         150.2340   145.4500    70.9370 n1         1 QFC      -0.458000
     39 O1         135.6060   145.1120    72.8020 o          1 QFC      -0.539000
     40 O2         131.0590   140.1850    73.1170 o          1 QFC      -0.515000
     41 H2         133.4280   139.8860    72.6010 hn         1 QFC       0.331500
     42 H3         147.0900   143.1750    66.8790 ha         1 QFC       0.121000
     43 H4         145.8630   143.8190    65.4340 h1         1 QFC       0.055200
     44 H5         144.6550   145.0780    65.1740 h1         1 QFC       0.055200
     45 H6         144.1270   142.0990    65.6050 h1         1 QFC       0.045200
     46 H7         143.9360   143.0180    64.0970 h1         1 QFC       0.045200
     47 H8         141.5910   141.5510    65.4550 h1         1 QFC       0.042700
     48 H9         141.7450   142.4280    63.9300 h1         1 QFC       0.042700
     49 H10        140.4700   144.8410    63.9960 ha         1 QFC       0.120500
     50 H13        137.5930   146.3120    67.0120 ha         1 QFC       0.125000
     51 H14        137.5660   146.7800    71.2800 ha         1 QFC       0.139000
     52 H15        133.6190   144.0560    69.2100 h1         1 QFC       0.068200
     53 H16        134.8130   142.7670    69.4040 h1         1 QFC       0.068200
     54 H17        133.7600   143.6180    72.9840 h1         1 QFC       0.109700
     55 H18        131.3570   142.9800    73.5670 hc         1 QFC       0.084200
     56 H19        130.2670   142.4810    72.2810 hc         1 QFC       0.084200
     57 H20        139.4300   141.4310    66.3550 ha         1 QFC       0.120500
     58 H21        146.8880   146.4600    70.5550 ha         1 QFC       0.140000
     59 H22        138.1970   145.7490    64.3060 ha         1 QFC       0.119000
     60 H23        138.4650   147.3700    69.0260 ha         1 QFC       0.120000
     61 H24        131.8630   144.3510    71.5840 hc         1 QFC       0.064700
     62 H25        132.0130   142.9110    70.5770 hc         1 QFC       0.064700
     63 H26        137.1510   142.3260    66.6520 ha         1 QFC       0.119000
     64 H27        141.3800   143.8880    67.2550 h1         1 QFC       0.045200
     65 H28        142.6030   142.6270    67.4890 h1         1 QFC       0.045200
     66 H29        149.0760   143.5720    68.2260 ha         1 QFC       0.127000
     67 H30        143.0590   145.6330    67.1650 h1         1 QFC       0.055200
     68 H31        143.2910   144.6460    68.6170 h1         1 QFC       0.055200
     69 C13        136.1270   144.6590    65.6750 c3         1 QFC       0.209900
     70 O3         135.2190   141.3800    71.8540 o          1 QFC      -0.503000
     71 H11        136.1110   145.7260    65.4400 h1         1 QFC       0.064200
     72 H12        135.4170   144.1580    65.0170 h1         1 QFC       0.064200
@<TRIPOS>BOND
     1     1     6 1   
     2     1     7 1   
     3     1    31 1   
     4     2    15 1   
     5     2    29 1   
     6     2    41 1   
     7     3     4 ar  
     8     3    32 ar  
     9     3    42 1   
    10     4    17 1   
    11     4    18 ar  
    12     5     6 1   
    13     5    17 1   
    14     5    43 1   
    15     5    44 1   
    16     6    45 1   
    17     6    46 1   
    18     7    35 1   
    19     7    47 1   
    20     7    48 1   
    21     8    21 ar  
    22     8    35 ar  
    23     8    49 1   
    24     9    23 ar  
    25     9    24 ar  
    26     9    50 1   
    27    10    24 ar  
    28    10    25 ar  
    29    10    51 1   
    30    11    12 1   
    31    11    37 1   
    32    11    52 1   
    33    11    53 1   
    34    12    23 ar  
    35    12    25 ar  
    36    13    15 1   
    37    13    28 1   
    38    13    37 1   
    39    13    54 1   
    40    14    28 1   
    41    14    29 1   
    42    14    55 1   
    43    14    56 1   
    44    15    70 2   
    45    16    30 ar  
    46    16    35 ar  
    47    16    57 1   
    48    17    33 1   
    49    18    20 ar  
    50    18    36 1   
    51    19    23 1   
    52    19    69 1   
    53    20    27 ar  
    54    20    58 1   
    55    21    22 ar  
    56    21    59 1   
    57    22    30 ar  
    58    22    69 1   
    59    24    60 1   
    60    25    26 1   
    61    26    37 1   
    62    26    39 2   
    63    27    32 ar  
    64    27    34 1   
    65    28    61 1   
    66    28    62 1   
    67    29    40 2   
    68    30    63 1   
    69    31    33 1   
    70    31    64 1   
    71    31    65 1   
    72    32    66 1   
    73    33    67 1   
    74    33    68 1   
    75    34    38 3   
    76    69    71 1   
    77    69    72 1   
@<TRIPOS>SUBSTRUCTURE
     1 QFC         1 TEMP              0 ****  ****    0 ROOT
