@<TRIPOS>MOLECULE
QFC
   72    77     1     0     0
SMALL
No Charge or Current Charge


@<TRIPOS>ATOM
      1 N1         142.3560   143.5280    65.4560 n3         1 QFC      -0.721600
      2 N3         133.4380   140.7040    72.2120 ns         1 QFC      -0.483500
      3 C4         146.6770   143.5590    68.3750 ca         1 QFC      -0.172000
      4 C5         145.5960   144.4570    68.2960 ca         1 QFC       0.339000
      5 C6         144.8130   144.0420    65.9210 c6         1 QFC       0.226300
      6 C7         143.7730   143.1300    65.1900 c6         1 QFC       0.149300
      7 C8         141.3820   142.6870    64.7190 c3         1 QFC       0.212100
      8 C10        139.5350   144.3860    64.3050 ca         1 QFC      -0.095500
      9 C15        136.9070   146.2840    67.4940 ca         1 QFC      -0.158000
     10 C17        137.1980   146.6300    69.9010 ca         1 QFC      -0.071000
     11 C20        134.8680   143.7120    69.5620 c5         1 QFC       0.158300
     12 C21        135.7630   144.8420    69.0680 ca         1 QFC      -0.116300
     13 C22        134.3210   143.0390    72.0370 c6         1 QFC       0.044700
     14 C24        132.0790   142.5330    73.1640 c6         1 QFC      -0.160400
     15 C26        134.4790   141.5050    71.8250 c          1 QFC       0.552000
     16 C28        139.0010   142.3870    65.5780 ca         1 QFC      -0.095500
     17 N          144.5420   144.1510    67.3910 nh         1 QFC      -0.835400
     18 C          145.6170   145.6160    69.1220 ca         1 QFC       0.080000
     19 O          135.4480   144.4520    66.7290 os         1 QFC      -0.350100
     20 C1         146.6940   145.8500    69.9960 ca         1 QFC      -0.067000
     21 C11        138.2120   144.8360    64.4530 ca         1 QFC      -0.096000
     22 C12        137.2750   144.0670    65.1710 ca         1 QFC      -0.131300
     23 C14        136.0400   145.1880    67.7370 ca         1 QFC       0.146100
     24 C16        137.4820   146.9970    68.5710 ca         1 QFC      -0.086000
     25 C18        136.3330   145.5470    70.1150 ca         1 QFC      -0.120600
     26 C19        135.8710   144.9590    71.3860 c          1 QFC       0.586600
     27 C2         147.7650   144.9400    70.0640 ca         1 QFC      -0.053000
     28 C23        132.8430   143.4760    72.2040 c6         1 QFC      -0.082400
     29 C25        132.2780   141.0470    72.8450 c          1 QFC       0.574000
     30 C27        137.6770   142.8360    65.7270 ca         1 QFC      -0.096000
     31 C29        142.1090   143.5620    66.9340 c6         1 QFC       0.149300
     32 C3         147.7530   143.7930    69.2490 ca         1 QFC      -0.042000
     33 C30        143.1140   144.4850    67.6980 c6         1 QFC       0.226300
     34 C31        148.8650   145.1810    70.9570 cg         1 QFC       0.332000
     35 C9         139.9390   143.1620    64.8690 ca         1 QFC      -0.079300
     36 F          144.6230   146.5370    69.0790 f          1 QFC      -0.186000
     37 N2         135.0270   143.8950    71.0420 n          1 QFC      -0.414800
     38 N4         149.7540   145.3850    71.6860 n1         1 QFC      -0.458000
     39 O1         136.1580   145.3230    72.5180 o          1 QFC      -0.539000
     40 O2         131.4270   140.2100    73.0930 o          1 QFC      -0.515000
     41 H2         133.5560   139.7190    72.0300 hn         1 QFC       0.331500
     42 H3         146.6770   142.6640    67.7600 ha         1 QFC       0.121000
     43 H4         145.8190   143.6350    65.7390 h1         1 QFC       0.055200
     44 H5         144.7830   145.0430    65.4650 h1         1 QFC       0.055200
     45 H6         143.9380   142.0920    65.5150 h1         1 QFC       0.045200
     46 H7         143.9820   143.1630    64.1110 h1         1 QFC       0.045200
     47 H8         141.4560   141.6440    65.0580 h1         1 QFC       0.042700
     48 H9         141.6280   142.6890    63.6480 h1         1 QFC       0.042700
     49 H10        140.2530   144.9940    63.7580 ha         1 QFC       0.120500
     50 H13        137.1420   146.5970    66.4820 ha         1 QFC       0.125000
     51 H14        137.6360   147.1710    70.7380 ha         1 QFC       0.139000
     52 H15        133.8280   143.8490    69.2370 h1         1 QFC       0.068200
     53 H16        135.2320   142.7340    69.2220 h1         1 QFC       0.068200
     54 H17        134.8020   143.1960    73.0140 h1         1 QFC       0.109700
     55 H18        132.5060   142.6790    74.1650 hc         1 QFC       0.084200
     56 H19        131.0070   142.7610    73.2390 hc         1 QFC       0.084200
     57 H20        139.2980   141.4390    66.0210 ha         1 QFC       0.120500
     58 H21        146.6930   146.7440    70.6160 ha         1 QFC       0.140000
     59 H22        137.9190   145.7870    64.0130 ha         1 QFC       0.119000
     60 H23        138.1470   147.8340    68.3730 ha         1 QFC       0.120000
     61 H24        132.7920   144.5120    72.5670 hc         1 QFC       0.064700
     62 H25        132.3450   143.4650    71.2240 hc         1 QFC       0.064700
     63 H26        136.9650   142.2280    66.2820 ha         1 QFC       0.119000
     64 H27        141.0910   143.9180    67.1490 h1         1 QFC       0.045200
     65 H28        142.1870   142.5470    67.3500 h1         1 QFC       0.045200
     66 H29        148.5750   143.0800    69.2930 ha         1 QFC       0.127000
     67 H30        142.9050   145.5280    67.4190 h1         1 QFC       0.055200
     68 H31        142.9210   144.3880    68.7770 h1         1 QFC       0.055200
     69 C13        135.8390   144.5640    65.3460 c3         1 QFC       0.209900
     70 O3         135.4950   141.0060    71.3670 o          1 QFC      -0.503000
     71 H11        135.7410   145.5990    64.9940 h1         1 QFC       0.064200
     72 H12        135.1790   143.9470    64.7220 h1         1 QFC       0.064200
@<TRIPOS>BOND
     1     1     6 1   
     2     1     7 1   
     3     1    31 1   
     4     2    15 1   
     5     2    29 1   
     6     2    41 1   
     7     3     4 ar  
     8     3    32 ar  
     9     3    42 1   
    10     4    17 1   
    11     4    18 ar  
    12     5     6 1   
    13     5    17 1   
    14     5    43 1   
    15     5    44 1   
    16     6    45 1   
    17     6    46 1   
    18     7    35 1   
    19     7    47 1   
    20     7    48 1   
    21     8    21 ar  
    22     8    35 ar  
    23     8    49 1   
    24     9    23 ar  
    25     9    24 ar  
    26     9    50 1   
    27    10    24 ar  
    28    10    25 ar  
    29    10    51 1   
    30    11    12 1   
    31    11    37 1   
    32    11    52 1   
    33    11    53 1   
    34    12    23 ar  
    35    12    25 ar  
    36    13    15 1   
    37    13    28 1   
    38    13    37 1   
    39    13    54 1   
    40    14    28 1   
    41    14    29 1   
    42    14    55 1   
    43    14    56 1   
    44    15    70 2   
    45    16    30 ar  
    46    16    35 ar  
    47    16    57 1   
    48    17    33 1   
    49    18    20 ar  
    50    18    36 1   
    51    19    23 1   
    52    19    69 1   
    53    20    27 ar  
    54    20    58 1   
    55    21    22 ar  
    56    21    59 1   
    57    22    30 ar  
    58    22    69 1   
    59    24    60 1   
    60    25    26 1   
    61    26    37 1   
    62    26    39 2   
    63    27    32 ar  
    64    27    34 1   
    65    28    61 1   
    66    28    62 1   
    67    29    40 2   
    68    30    63 1   
    69    31    33 1   
    70    31    64 1   
    71    31    65 1   
    72    32    66 1   
    73    33    67 1   
    74    33    68 1   
    75    34    38 3   
    76    69    71 1   
    77    69    72 1   
@<TRIPOS>SUBSTRUCTURE
     1 QFC         1 TEMP              0 ****  ****    0 ROOT
