@<TRIPOS>MOLECULE
QFD
   46    48     1     0     0
SMALL
bcc


@<TRIPOS>ATOM
      1 C13         -6.5050    17.8520     4.5830 ca         1 QFD      -0.194000
      2 C15         -7.9430    17.6010     0.4480 c          1 QFD       0.710500
      3 C20        -10.6210    18.7260     3.3620 ca         1 QFD      -0.132300
      4 C21        -10.2340    17.5550     4.0040 ca         1 QFD      -0.082500
      5 C22        -11.1670    16.6720     4.5290 ca         1 QFD      -0.193000
      6 C26        -11.9870    18.9850     3.2550 ca         1 QFD      -0.082500
      7 C02         -8.4730    20.4450     0.6710 c          1 QFD       0.709500
      8 C04         -6.8910    18.6150     0.0550 c6         1 QFD       0.038700
      9 C05         -5.6350    18.4480     0.9330 c3         1 QFD      -0.036100
     10 C06         -5.8980    18.6870     2.3900 ca         1 QFD      -0.128300
     11 C07         -5.8730    19.9680     2.9290 ca         1 QFD      -0.084000
     12 C08         -6.1730    20.2080     4.2640 ca         1 QFD      -0.194000
     13 C09         -6.5010    19.1450     5.1020 ca         1 QFD       0.145100
     14 C11         -7.1720    20.5400     6.9160 c3         1 QFD       0.336200
     15 C14         -6.2090    17.6320     3.2490 ca         1 QFD      -0.084000
     16 C18         -9.4380    19.4340     1.2520 c6         1 QFD       0.041700
     17 C19         -9.6060    19.6580     2.7660 c3         1 QFD      -0.037100
     18 C23        -12.5260    16.9480     4.4140 ca         1 QFD       0.143100
     19 C25        -12.9330    18.1160     3.7710 ca         1 QFD      -0.193000
     20 N03         -7.3770    19.9740     0.0690 ns         1 QFD      -0.563900
     21 N17         -9.0910    18.0660     0.9460 ns         1 QFD      -0.558900
     22 O10         -6.8080    19.2680     6.4150 os         1 QFD      -0.345900
     23 O12         -8.3790    20.9870     6.4110 oh         1 QFD      -0.593800
     24 O16         -7.7150    16.4090     0.2960 o          1 QFD      -0.641500
     25 O24        -13.4800    16.1310     4.9040 oh         1 QFD      -0.493100
     26 H1          -6.7430    17.0180     5.2320 ha         1 QFD       0.140000
     27 H2          -9.1800    17.3280     4.1080 ha         1 QFD       0.135000
     28 H3         -10.8320    15.7680     5.0250 ha         1 QFD       0.140500
     29 H4         -12.3240    19.8910     2.7640 ha         1 QFD       0.135000
     30 H5          -6.6070    18.3720    -0.9720 h1         1 QFD       0.082700
     31 H6          -5.2450    17.4420     0.7700 hc         1 QFD       0.065200
     32 H7          -4.8760    19.1390     0.5600 hc         1 QFD       0.065200
     33 H8          -5.6100    20.8120     2.3030 ha         1 QFD       0.138000
     34 H9          -6.1190    21.2280     4.6220 ha         1 QFD       0.140000
     35 H10         -7.2910    20.3830     7.9860 h2         1 QFD       0.059700
     36 H11         -6.3620    21.2600     6.7540 h2         1 QFD       0.059700
     37 H12         -6.2230    16.6170     2.8700 ha         1 QFD       0.138000
     38 H13        -10.3990    19.6470     0.7730 h1         1 QFD       0.080700
     39 H14         -8.6400    19.5260     3.2550 hc         1 QFD       0.069200
     40 H15         -9.9090    20.6950     2.9200 hc         1 QFD       0.069200
     41 H16        -13.9890    18.3420     3.6830 ha         1 QFD       0.140500
     42 H17         -6.7630    20.6660    -0.3390 hn         1 QFD       0.320500
     43 H18         -9.7790    17.3690     1.1980 hn         1 QFD       0.331500
     44 H19         -8.2390    21.4730     5.5930 ho         1 QFD       0.413000
     45 H20        -13.0790    15.3690     5.3370 ho         1 QFD       0.427000
     46 O01         -8.7350    21.6360     0.7410 o          1 QFD      -0.637500
@<TRIPOS>BOND
     1     1    13 ar  
     2     1    15 ar  
     3     1    26 1   
     4     2     8 1   
     5     2    21 1   
     6     2    24 2   
     7     3     4 ar  
     8     3     6 ar  
     9     3    17 1   
    10     4     5 ar  
    11     4    27 1   
    12     5    18 ar  
    13     5    28 1   
    14     6    19 ar  
    15     6    29 1   
    16     7    16 1   
    17     7    20 1   
    18     7    46 2   
    19     8     9 1   
    20     8    20 1   
    21     8    30 1   
    22     9    10 1   
    23     9    31 1   
    24     9    32 1   
    25    10    11 ar  
    26    10    15 ar  
    27    11    12 ar  
    28    11    33 1   
    29    12    13 ar  
    30    12    34 1   
    31    13    22 1   
    32    14    22 1   
    33    14    23 1   
    34    14    35 1   
    35    14    36 1   
    36    15    37 1   
    37    16    17 1   
    38    16    21 1   
    39    16    38 1   
    40    17    39 1   
    41    17    40 1   
    42    18    19 ar  
    43    18    25 1   
    44    19    41 1   
    45    20    42 1   
    46    21    43 1   
    47    23    44 1   
    48    25    45 1   
@<TRIPOS>SUBSTRUCTURE
     1 QFD         1 TEMP              0 ****  ****    0 ROOT
