@<TRIPOS>MOLECULE
QFD
   46    48     1     0     0
SMALL
No Charge or Current Charge


@<TRIPOS>ATOM
      1 C13         -6.5820    17.9760     4.7050 ca         1 QFD      -0.176000
      2 C15         -8.0150    17.5750     0.3710 c          1 QFD       0.568000
      3 C20        -10.7110    18.5830     3.2780 ca         1 QFD      -0.132300
      4 C21        -10.3140    17.3750     3.8850 ca         1 QFD      -0.064500
      5 C22        -11.2790    16.4860     4.3900 ca         1 QFD      -0.175000
      6 C26        -12.0810    18.8920     3.1800 ca         1 QFD      -0.064500
      7 C02         -8.4660    20.5050     0.6890 c          1 QFD       0.567000
      8 C04         -6.8950    18.6100     0.0470 c6         1 QFD       0.038700
      9 C05         -5.6800    18.4010     0.9990 c3         1 QFD      -0.036100
     10 C06         -5.9610    18.7170     2.4660 ca         1 QFD      -0.128300
     11 C07         -5.8300    20.0320     2.9520 ca         1 QFD      -0.066000
     12 C08         -6.0820    20.3210     4.3050 ca         1 QFD      -0.176000
     13 C09         -6.4650    19.2880     5.1880 ca         1 QFD       0.145100
     14 C11         -6.7730    20.8090     7.1140 c3         1 QFD       0.382600
     15 C14         -6.3350    17.6880     3.3520 ca         1 QFD      -0.066000
     16 C18         -9.5160    19.4620     1.1770 c6         1 QFD       0.041700
     17 C19         -9.6680    19.5480     2.7220 c3         1 QFD      -0.037100
     18 C23        -12.6430    16.8000     4.2900 ca         1 QFD       0.143100
     19 C25        -13.0440    18.0010     3.6850 ca         1 QFD      -0.175000
     20 N03         -7.3450    20.0250     0.0510 ns         1 QFD      -0.496900
     21 N17         -9.2400    18.0670     0.7530 ns         1 QFD      -0.491900
     22 O10         -6.7220    19.5020     6.5280 os         1 QFD      -0.369100
     23 O12         -7.9650    21.4700     6.6930 oh         1 QFD      -0.656000
     24 O16         -7.8540    16.3720     0.2340 o          1 QFD      -0.566000
     25 O24        -13.5850    15.9440     4.7760 oh         1 QFD      -0.532100
     26 H1          -6.8700    17.1770     5.3830 ha         1 QFD       0.122000
     27 H2          -9.2590    17.1220     3.9620 ha         1 QFD       0.117000
     28 H3         -10.9590    15.5570     4.8550 ha         1 QFD       0.122500
     29 H4         -12.4010    19.8210     2.7110 ha         1 QFD       0.117000
     30 H5          -6.5700    18.3720    -0.9760 h1         1 QFD       0.082700
     31 H6          -5.3180    17.3700     0.9060 hc         1 QFD       0.065200
     32 H7          -4.8460    19.0230     0.6510 hc         1 QFD       0.065200
     33 H8          -5.5310    20.8340     2.2790 ha         1 QFD       0.120000
     34 H9          -5.9620    21.3460     4.6440 ha         1 QFD       0.122000
     35 H10         -6.7880    20.7350     8.2080 h2         1 QFD       0.059700
     36 H11         -5.8970    21.4070     6.8330 h2         1 QFD       0.059700
     37 H12         -6.4340    16.6650     2.9930 ha         1 QFD       0.120000
     38 H13        -10.4680    19.7650     0.7190 h1         1 QFD       0.080700
     39 H14         -8.6990    19.3580     3.1960 hc         1 QFD       0.069200
     40 H15         -9.9350    20.5730     3.0080 hc         1 QFD       0.069200
     41 H16        -14.1010    18.2430     3.6080 ha         1 QFD       0.122500
     42 H17         -6.7150    20.7310    -0.3110 hn         1 QFD       0.320500
     43 H18         -9.9550    17.3690     0.9230 hn         1 QFD       0.331500
     44 H19         -8.0520    21.2590     5.7410 ho         1 QFD       0.452000
     45 H20        -13.1270    15.1660     5.1600 ho         1 QFD       0.466000
     46 O01         -8.6400    21.7090     0.7960 o          1 QFD      -0.562000
@<TRIPOS>BOND
     1     1    13 ar  
     2     1    15 ar  
     3     1    26 1   
     4     2     8 1   
     5     2    21 1   
     6     2    24 2   
     7     3     4 ar  
     8     3     6 ar  
     9     3    17 1   
    10     4     5 ar  
    11     4    27 1   
    12     5    18 ar  
    13     5    28 1   
    14     6    19 ar  
    15     6    29 1   
    16     7    16 1   
    17     7    20 1   
    18     7    46 2   
    19     8     9 1   
    20     8    20 1   
    21     8    30 1   
    22     9    10 1   
    23     9    31 1   
    24     9    32 1   
    25    10    11 ar  
    26    10    15 ar  
    27    11    12 ar  
    28    11    33 1   
    29    12    13 ar  
    30    12    34 1   
    31    13    22 1   
    32    14    22 1   
    33    14    23 1   
    34    14    35 1   
    35    14    36 1   
    36    15    37 1   
    37    16    17 1   
    38    16    21 1   
    39    16    38 1   
    40    17    39 1   
    41    17    40 1   
    42    18    19 ar  
    43    18    25 1   
    44    19    41 1   
    45    20    42 1   
    46    21    43 1   
    47    23    44 1   
    48    25    45 1   
@<TRIPOS>SUBSTRUCTURE
     1 QFD         1 TEMP              0 ****  ****    0 ROOT
