@<TRIPOS>MOLECULE
QFE
   56    61     1     0     0
SMALL
No Charge or Current Charge


@<TRIPOS>ATOM
      1 C1          -1.8490     0.0950    12.6680 cc         1 QFE      -0.161100
      2 C2          -0.6830    -0.1180    13.3890 cd         1 QFE      -0.225200
      3 C3          -0.8030    -1.2720    14.2580 ca         1 QFE      -0.054800
      4 N6           2.7150     4.0450    12.1810 nu         1 QFE      -0.918200
      5 C7          -0.4120    -3.0270    15.8580 ca         1 QFE      -0.121000
      6 C8           0.0850    -1.8830    15.1760 ca         1 QFE      -0.073900
      7 C9           1.4560    -1.3940    15.4250 cc         1 QFE       0.493400
      8 C10          3.4700    -1.2490    16.3710 ca         1 QFE       0.358500
      9 C11          3.3190    -0.2990    15.3870 ca         1 QFE       0.005400
     10 C12          4.3740     0.5950    15.1050 ca         1 QFE       0.125800
     11 C13          5.5460     0.4380    15.8780 ca         1 QFE      -0.197000
     12 C14          5.6030    -0.5660    16.8630 ca         1 QFE       0.368900
     13 C15          3.1390     2.3470    13.8940 cc         1 QFE      -0.207000
     14 C16          3.5020     3.1130    12.8300 cd         1 QFE       0.163000
     15 C19          0.5900     4.6530    11.0760 c6         1 QFE      -0.119400
     16 C20         -0.9340     4.8210    11.2770 c6         1 QFE       0.162600
     17 C21         -0.6830     5.2040    13.6570 c6         1 QFE       0.155600
     18 C22          0.8680     5.0230    13.6080 c6         1 QFE       0.130500
     19 N7           1.6130     6.3200    13.5960 n8         1 QFE      -0.990200
     20 O           -1.1930     5.6980    12.3940 os         1 QFE      -0.431000
     21 C18          1.2460     4.1220    12.3750 c6         1 QFE       0.219500
     22 C17          4.8460     2.7750    12.4940 cd         1 QFE       0.224900
     23 N5           5.3490     1.8300    13.2730 nc         1 QFE      -0.501800
     24 N4           4.2800     1.5860    14.1150 na         1 QFE       0.224000
     25 N3           4.5740    -1.4120    17.1170 nb         1 QFE      -0.676000
     26 N1           2.3030    -1.9280    16.3890 na         1 QFE      -0.412300
     27 N2           2.0630    -0.3840    14.7800 nd         1 QFE      -0.580100
     28 C6          -1.7220    -3.5100    15.6270 ca         1 QFE      -0.102000
     29 C5          -2.5720    -2.8650    14.7090 ca         1 QFE      -0.103000
     30 C4          -2.0750    -1.7400    14.0360 ca         1 QFE      -0.058200
     31 N           -2.7050    -0.9350    13.0930 na         1 QFE      -0.085700
     32 C           -4.0840    -1.1860    12.6460 c3         1 QFE       0.063900
     33 H1          -2.1260     0.8460    11.9330 h4         1 QFE       0.213000
     34 H2           0.1970     0.5110    13.2940 ha         1 QFE       0.222000
     35 H3           3.1130     4.4510    11.3300 hn         1 QFE       0.463000
     36 H4           0.2100    -3.5580    16.5730 ha         1 QFE       0.106000
     37 H5           6.4040     1.0860    15.7250 ha         1 QFE       0.152000
     38 H6           6.5000    -0.6980    17.4680 h4         1 QFE       0.025100
     39 H7           2.2300     2.2680    14.4720 h4         1 QFE       0.190000
     40 H8           0.7780     3.9580    10.2470 hc         1 QFE       0.059700
     41 H9           1.0280     5.6180    10.7900 hc         1 QFE       0.059700
     42 H10         -1.3850     5.2530    10.3720 h1         1 QFE       0.039200
     43 H11         -1.4060     3.8450    11.4630 h1         1 QFE       0.039200
     44 H12         -0.9580     5.9070    14.4560 h1         1 QFE       0.044200
     45 H13         -1.1620     4.2390    13.8810 h1         1 QFE       0.044200
     46 H14          1.1890     4.4950    14.5180 h1         1 QFE       0.030700
     47 H15          1.8740     6.5600    14.5580 hn         1 QFE       0.402500
     48 H16          2.5160     6.1020    13.1540 hn         1 QFE       0.402500
     49 H18          0.8450     3.1130    12.5580 h1         1 QFE       0.032700
     50 H19          5.4560     3.1870    11.7000 h4         1 QFE       0.041100
     51 H20          2.0840    -2.6890    17.0100 hn         1 QFE       0.371000
     52 H22         -2.0760    -4.3870    16.1640 ha         1 QFE       0.116000
     53 H23         -3.5790    -3.2350    14.5320 ha         1 QFE       0.117000
     54 H24         -4.1480    -2.1830    12.1930 h1         1 QFE       0.051033
     55 H25         -4.7660    -1.1300    13.5030 h1         1 QFE       0.051033
     56 H26         -4.3770    -0.4340    11.9030 h1         1 QFE       0.051033
@<TRIPOS>BOND
     1     1     2 2   
     2     1    31 1   
     3     1    33 1   
     4     2     3 1   
     5     2    34 1   
     6     3     6 ar  
     7     3    30 ar  
     8     4    14 1   
     9     4    21 1   
    10     4    35 1   
    11     5     6 ar  
    12     5    28 ar  
    13     5    36 1   
    14     6     7 1   
    15     7    26 1   
    16     7    27 2   
    17     8     9 ar  
    18     8    25 ar  
    19     8    26 1   
    20     9    10 ar  
    21     9    27 1   
    22    10    11 ar  
    23    10    24 1   
    24    11    12 ar  
    25    11    37 1   
    26    12    25 ar  
    27    12    38 1   
    28    13    14 2   
    29    13    24 1   
    30    13    39 1   
    31    14    22 1   
    32    15    16 1   
    33    15    21 1   
    34    15    40 1   
    35    15    41 1   
    36    16    20 1   
    37    16    42 1   
    38    16    43 1   
    39    17    18 1   
    40    17    20 1   
    41    17    44 1   
    42    17    45 1   
    43    18    19 1   
    44    18    21 1   
    45    18    46 1   
    46    19    47 1   
    47    19    48 1   
    48    21    49 1   
    49    22    23 2   
    50    22    50 1   
    51    23    24 1   
    52    26    51 1   
    53    28    29 ar  
    54    28    52 1   
    55    29    30 ar  
    56    29    53 1   
    57    30    31 1   
    58    31    32 1   
    59    32    54 1   
    60    32    55 1   
    61    32    56 1   
@<TRIPOS>SUBSTRUCTURE
     1 QFE         1 TEMP              0 ****  ****    0 ROOT
