@<TRIPOS>MOLECULE
QFE
   56    61     1     0     0
SMALL
abcg2


@<TRIPOS>ATOM
      1 C1          -1.7240     0.0690    12.6830 cc         1 QFE      -0.161100
      2 C2          -0.5220    -0.0840    13.3160 cd         1 QFE      -0.225200
      3 C3          -0.7400    -0.9970    14.3900 ca         1 QFE      -0.054800
      4 N6           2.7880     4.3640    12.4560 nu         1 QFE      -0.918200
      5 C7          -0.5200    -2.4690    16.2780 ca         1 QFE      -0.121000
      6 C8           0.0690    -1.5800    15.3860 ca         1 QFE      -0.073900
      7 C9           1.4860    -1.2560    15.4750 cc         1 QFE       0.493400
      8 C10          3.6150    -1.4370    16.0140 ca         1 QFE       0.358500
      9 C11          3.3740    -0.2890    15.2420 ca         1 QFE       0.005400
     10 C12          4.4690     0.5260    14.9410 ca         1 QFE       0.125800
     11 C13          5.7010     0.1000    15.4340 ca         1 QFE      -0.197000
     12 C14          5.7910    -1.0690    16.1850 ca         1 QFE       0.368900
     13 C15          3.1940     2.2660    13.7240 cc         1 QFE      -0.207000
     14 C16          3.5720     3.4140    13.0760 cd         1 QFE       0.163000
     15 C19          0.8630     4.9130    11.0560 c6         1 QFE      -0.119400
     16 C20         -0.6260     4.6700    10.8680 c6         1 QFE       0.162600
     17 C21         -0.9300     4.1130    13.1100 c6         1 QFE       0.155600
     18 C22          0.5350     4.3310    13.4700 c6         1 QFE       0.130500
     19 N7           0.7510     5.6840    13.9480 n8         1 QFE      -0.990200
     20 O           -1.3600     4.9230    12.0430 os         1 QFE      -0.431000
     21 C18          1.3880     4.0770    12.2170 c6         1 QFE       0.219500
     22 C17          4.9860     3.4410    13.2120 cd         1 QFE       0.224900
     23 N5           5.4280     2.4040    13.8810 nc         1 QFE      -0.501800
     24 N4           4.3460     1.6910    14.1980 na         1 QFE       0.224000
     25 N3           4.7680    -1.8590    16.4950 nb         1 QFE      -0.676000
     26 N1           2.3920    -2.0260    16.1460 na         1 QFE      -0.412300
     27 N2           2.0480    -0.2080    14.9250 nd         1 QFE      -0.580100
     28 C6          -1.8780    -2.7930    16.2040 ca         1 QFE      -0.102000
     29 C5          -2.6930    -2.2440    15.2330 ca         1 QFE      -0.103000
     30 C4          -2.1100    -1.3520    14.3380 ca         1 QFE      -0.058200
     31 N           -2.6820    -0.6870    13.2910 na         1 QFE      -0.085700
     32 C           -4.0660    -0.7850    12.8970 c3         1 QFE       0.063900
     33 H1          -1.9720     0.6750    11.8260 h4         1 QFE       0.213000
     34 H2           0.3980     0.4020    13.0420 ha         1 QFE       0.222000
     35 H3           3.2510     4.8300    11.6900 hn         1 QFE       0.463000
     36 H4           0.0640    -2.9170    17.0720 ha         1 QFE       0.106000
     37 H5           6.5950     0.6740    15.2430 ha         1 QFE       0.152000
     38 H6           6.7620    -1.3740    16.5570 h4         1 QFE       0.025100
     39 H7           2.2330     1.8170    13.9000 h4         1 QFE       0.190000
     40 H8           1.3850     4.6450    10.1340 hc         1 QFE       0.059700
     41 H9           1.0500     5.9730    11.2430 hc         1 QFE       0.059700
     42 H10         -1.0240     5.3260    10.0920 h1         1 QFE       0.039200
     43 H11         -0.7850     3.6330    10.5330 h1         1 QFE       0.039200
     44 H12         -1.5670     4.3460    13.9670 h1         1 QFE       0.044200
     45 H13         -1.0780     3.0480    12.8760 h1         1 QFE       0.044200
     46 H14          0.7780     3.5680    14.2260 h1         1 QFE       0.030700
     47 H15          0.2970     5.8060    14.8440 hn         1 QFE       0.402500
     48 H16          1.7410     5.8200    14.1080 hn         1 QFE       0.402500
     49 H18          1.2570     3.0150    11.9490 h1         1 QFE       0.032700
     50 H19          5.6720     4.1840    12.8340 h4         1 QFE       0.041100
     51 H20          2.2160    -2.9020    16.6140 hn         1 QFE       0.371000
     52 H22         -2.2940    -3.4850    16.9240 ha         1 QFE       0.116000
     53 H23         -3.7430    -2.5000    15.1780 ha         1 QFE       0.117000
     54 H24         -4.3170    -1.8030    12.6000 h1         1 QFE       0.051033
     55 H25         -4.7250    -0.4850    13.7110 h1         1 QFE       0.051033
     56 H26         -4.2410    -0.1250    12.0520 h1         1 QFE       0.051033
@<TRIPOS>BOND
     1     1     2 2   
     2     1    31 1   
     3     1    33 1   
     4     2     3 1   
     5     2    34 1   
     6     3     6 ar  
     7     3    30 ar  
     8     4    14 1   
     9     4    21 1   
    10     4    35 1   
    11     5     6 ar  
    12     5    28 ar  
    13     5    36 1   
    14     6     7 1   
    15     7    26 1   
    16     7    27 2   
    17     8     9 ar  
    18     8    25 ar  
    19     8    26 1   
    20     9    10 ar  
    21     9    27 1   
    22    10    11 ar  
    23    10    24 1   
    24    11    12 ar  
    25    11    37 1   
    26    12    25 ar  
    27    12    38 1   
    28    13    14 2   
    29    13    24 1   
    30    13    39 1   
    31    14    22 1   
    32    15    16 1   
    33    15    21 1   
    34    15    40 1   
    35    15    41 1   
    36    16    20 1   
    37    16    42 1   
    38    16    43 1   
    39    17    18 1   
    40    17    20 1   
    41    17    44 1   
    42    17    45 1   
    43    18    19 1   
    44    18    21 1   
    45    18    46 1   
    46    19    47 1   
    47    19    48 1   
    48    21    49 1   
    49    22    23 2   
    50    22    50 1   
    51    23    24 1   
    52    26    51 1   
    53    28    29 ar  
    54    28    52 1   
    55    29    30 ar  
    56    29    53 1   
    57    30    31 1   
    58    31    32 1   
    59    32    54 1   
    60    32    55 1   
    61    32    56 1   
@<TRIPOS>SUBSTRUCTURE
     1 QFE         1 TEMP              0 ****  ****    0 ROOT
