@<TRIPOS>MOLECULE
QFF
   62    65     1     0     0
SMALL
abcg2


@<TRIPOS>ATOM
      1 C1          -0.2720   -16.8070    48.1100 c3         1 QFF      -0.134400
      2 C2           4.1590   -13.9800    43.6240 c5         1 QFF       0.074000
      3 N1           3.8270   -15.3710    43.2850 n          1 QFF      -0.396800
      4 C3           3.4840   -15.5260    41.8730 c5         1 QFF       0.039700
      5 C4           3.7680   -14.1360    41.2760 c5         1 QFF      -0.080400
      6 C5           3.5780   -13.1910    42.4540 c5         1 QFF       0.152300
      7 C6           3.7350   -16.4260    44.1120 c          1 QFF       0.618100
      8 C7           4.1390   -16.2190    45.5740 c3         1 QFF      -0.171000
      9 C8           5.1180   -17.3320    46.0290 c3         1 QFF      -0.045700
     10 C9           4.3510   -16.5930    41.2100 c          1 QFF       0.597100
     11 O2           2.1740   -12.9720    42.6080 oh         1 QFF      -0.659000
     12 C10          5.4700   -17.1700    47.5070 c3         1 QFF      -0.094600
     13 C11          6.3770   -17.3080    45.1620 c3         1 QFF      -0.094600
     14 C12          2.9030   -16.1630    46.4100 cc         1 QFF       0.189300
     15 C13          1.8310   -16.9810    46.5600 cd         1 QFF      -0.224000
     16 C14          1.0300   -16.3460    47.5500 cd         1 QFF       0.284300
     17 N2           1.5790   -15.2290    47.9610 nc         1 QFF      -0.363300
     18 O3           2.7770   -15.1030    47.2350 os         1 QFF      -0.108700
     19 O4           5.5400   -16.7300    41.4340 o          1 QFF      -0.551100
     20 N3           3.6860   -17.2790    40.2490 ns         1 QFF      -0.374400
     21 O5           4.3160   -18.3420    39.6270 os         1 QFF      -0.117200
     22 C15          5.0340   -18.0020    38.4880 ca         1 QFF       0.114100
     23 C16          5.6840   -19.0640    37.8700 ca         1 QFF      -0.141500
     24 C17          6.4410   -18.8310    36.7350 ca         1 QFF      -0.066500
     25 C18          6.5550   -17.5440    36.1930 ca         1 QFF      -0.037000
     26 C19          5.8900   -16.4970    36.8390 ca         1 QFF      -0.066500
     27 C20          5.1300   -16.7150    37.9820 ca         1 QFF      -0.141500
     28 C21          7.3650   -17.3010    34.9960 cc         1 QFF      -0.166000
     29 S1           8.4340   -15.9340    34.8970 ss         1 QFF      -0.048400
     30 C22          8.9140   -16.4380    33.3240 cc         1 QFF       0.417300
     31 N4           8.3370   -17.5250    32.9010 nd         1 QFF      -0.637000
     32 C23          7.4540   -18.0300    33.8330 cd         1 QFF       0.294300
     33 C24          6.6770   -19.2610    33.4930 c3         1 QFF      -0.120400
     34 H1          -0.6410   -16.1050    48.8560 hc         1 QFF       0.058367
     35 H2          -1.0140   -16.9020    47.3150 hc         1 QFF       0.058367
     36 H3          -0.1580   -17.7890    48.5740 hc         1 QFF       0.058367
     37 H5           3.7090   -13.6800    44.5680 h1         1 QFF       0.063700
     38 H6           2.4300   -15.7900    41.7740 h1         1 QFF       0.080700
     39 H7           4.8020   -14.0810    40.9340 hc         1 QFF       0.076200
     40 H8           3.1070   -13.9030    40.4440 hc         1 QFF       0.076200
     41 H9           4.1010   -12.2420    42.3150 h1         1 QFF       0.058700
     42 H10          4.6540   -15.2660    45.6910 hc         1 QFF       0.077700
     43 H11          4.6080   -18.2870    45.8880 hc         1 QFF       0.072700
     44 H12          2.0310   -12.4400    43.4010 ho         1 QFF       0.450000
     45 H13          6.1620   -17.9560    47.8150 hc         1 QFF       0.042200
     46 H14          5.9520   -16.2060    47.6880 hc         1 QFF       0.042200
     47 H15          4.5860   -17.2320    48.1440 hc         1 QFF       0.042200
     48 H16          7.0640   -18.0970    45.4730 hc         1 QFF       0.042200
     49 H17          6.1460   -17.4600    44.1060 hc         1 QFF       0.042200
     50 H18          6.8940   -16.3500    45.2640 hc         1 QFF       0.042200
     51 H19          1.6340   -17.9050    46.0460 ha         1 QFF       0.165000
     52 H20          2.6780   -17.3470    40.2170 hn         1 QFF       0.347500
     53 H21          5.6030   -20.0580    38.2910 ha         1 QFF       0.128500
     54 H22          6.9670   -19.6560    36.2750 ha         1 QFF       0.119500
     55 H23          5.9550   -15.4930    36.4390 ha         1 QFF       0.119500
     56 H24          4.6220   -15.8910    38.4600 ha         1 QFF       0.128500
     57 H25          9.6360   -15.8710    32.7530 h5         1 QFF       0.053100
     58 H26          6.3960   -19.2400    32.4390 hc         1 QFF       0.051700
     59 H27          7.2730   -20.1630    33.6570 hc         1 QFF       0.051700
     60 H28          5.7750   -19.3420    34.0970 hc         1 QFF       0.051700
     61 O1           3.3480   -17.5250    43.7100 o          1 QFF      -0.603100
     62 H4           5.2410   -13.8400    43.6820 h1         1 QFF       0.063700
@<TRIPOS>BOND
     1     1    16 1   
     2     1    34 1   
     3     1    35 1   
     4     1    36 1   
     5     2     3 1   
     6     2     6 1   
     7     2    37 1   
     8     2    62 1   
     9     3     4 1   
    10     3     7 1   
    11     4     5 1   
    12     4    10 1   
    13     4    38 1   
    14     5     6 1   
    15     5    39 1   
    16     5    40 1   
    17     6    11 1   
    18     6    41 1   
    19     7     8 1   
    20     7    61 2   
    21     8     9 1   
    22     8    14 1   
    23     8    42 1   
    24     9    12 1   
    25     9    13 1   
    26     9    43 1   
    27    10    19 2   
    28    10    20 1   
    29    11    44 1   
    30    12    45 1   
    31    12    46 1   
    32    12    47 1   
    33    13    48 1   
    34    13    49 1   
    35    13    50 1   
    36    14    15 2   
    37    14    18 1   
    38    15    16 1   
    39    15    51 1   
    40    16    17 2   
    41    17    18 1   
    42    20    21 1   
    43    20    52 1   
    44    21    22 1   
    45    22    23 ar  
    46    22    27 ar  
    47    23    24 ar  
    48    23    53 1   
    49    24    25 ar  
    50    24    54 1   
    51    25    26 ar  
    52    25    28 1   
    53    26    27 ar  
    54    26    55 1   
    55    27    56 1   
    56    28    29 1   
    57    28    32 2   
    58    29    30 1   
    59    30    31 2   
    60    30    57 1   
    61    31    32 1   
    62    32    33 1   
    63    33    58 1   
    64    33    59 1   
    65    33    60 1   
@<TRIPOS>SUBSTRUCTURE
     1 QFF         1 TEMP              0 ****  ****    0 ROOT
