@<TRIPOS>MOLECULE
QFF
   62    65     1     0     0
SMALL
No Charge or Current Charge


@<TRIPOS>ATOM
      1 C1           0.0680   -15.8730    48.5690 c3         1 QFF      -0.134400
      2 C2           4.4110   -14.3690    43.3660 c5         1 QFF       0.074000
      3 N1           3.9210   -15.7470    43.1090 n          1 QFF      -0.396800
      4 C3           3.4910   -15.9440    41.6960 c5         1 QFF       0.039700
      5 C4           4.2150   -14.7520    41.0010 c5         1 QFF      -0.080400
      6 C5           4.0710   -13.6160    42.0420 c5         1 QFF       0.152300
      7 C6           3.5900   -16.6650    44.1310 c          1 QFF       0.618100
      8 C7           4.1650   -16.4610    45.5480 c3         1 QFF      -0.171000
      9 C8           4.8880   -17.7360    46.0870 c3         1 QFF      -0.045700
     10 C9           3.9720   -17.2690    41.0260 c          1 QFF       0.597100
     11 O2           2.7420   -13.0800    42.0430 oh         1 QFF      -0.659000
     12 C10          5.4470   -17.5270    47.5170 c3         1 QFF      -0.094600
     13 C11          6.0160   -18.2080    45.1360 c3         1 QFF      -0.094600
     14 C12          3.0710   -15.9820    46.4620 cc         1 QFF       0.189300
     15 C13          1.9940   -16.6160    46.9940 cd         1 QFF      -0.224000
     16 C14          1.3240   -15.6600    47.7740 cd         1 QFF       0.284300
     17 N2           1.9210   -14.4820    47.7520 nc         1 QFF      -0.363300
     18 O3           3.0680   -14.6780    46.8950 os         1 QFF      -0.108700
     19 O4           4.8970   -17.9900    41.3840 o          1 QFF      -0.551100
     20 N3           3.1820   -17.5270    39.9170 ns         1 QFF      -0.374400
     21 O5           3.5210   -18.6500    39.0860 os         1 QFF      -0.117200
     22 C15          4.3710   -18.1510    38.1230 ca         1 QFF       0.114100
     23 C16          5.7150   -18.5550    38.1130 ca         1 QFF      -0.141500
     24 C17          6.5950   -18.0560    37.1370 ca         1 QFF      -0.066500
     25 C18          6.1320   -17.1590    36.1540 ca         1 QFF      -0.037000
     26 C19          4.7820   -16.7560    36.1680 ca         1 QFF      -0.066500
     27 C20          3.9010   -17.2540    37.1440 ca         1 QFF      -0.141500
     28 C21          7.0370   -16.6200    35.1400 cc         1 QFF      -0.166000
     29 S1           7.2040   -14.9350    34.7580 ss         1 QFF      -0.048400
     30 C22          8.3570   -15.4190    33.5390 cc         1 QFF       0.417300
     31 N4           8.5700   -16.7260    33.4030 nd         1 QFF      -0.637000
     32 C23          7.7990   -17.4280    34.3180 cd         1 QFF       0.294300
     33 C24          7.8550   -18.9340    34.3100 c3         1 QFF      -0.120400
     34 H1           0.2410   -15.6760    49.6330 hc         1 QFF       0.058367
     35 H2          -0.7310   -15.2070    48.2250 hc         1 QFF       0.058367
     36 H3          -0.2890   -16.9050    48.4720 hc         1 QFF       0.058367
     37 H5           3.9210   -13.9060    44.2330 h1         1 QFF       0.063700
     38 H6           2.3980   -15.8650    41.6140 h1         1 QFF       0.080700
     39 H7           5.2740   -14.9760    40.8230 hc         1 QFF       0.076200
     40 H8           3.7740   -14.4960    40.0310 hc         1 QFF       0.076200
     41 H9           4.7950   -12.8110    41.8510 h1         1 QFF       0.058700
     42 H10          4.9170   -15.6670    45.5110 hc         1 QFF       0.077700
     43 H11          4.1510   -18.5480    46.1440 hc         1 QFF       0.072700
     44 H12          2.7330   -12.3290    42.6760 ho         1 QFF       0.450000
     45 H13          5.9540   -18.4330    47.8700 hc         1 QFF       0.042200
     46 H14          6.1690   -16.7020    47.5370 hc         1 QFF       0.042200
     47 H15          4.6450   -17.3000    48.2300 hc         1 QFF       0.042200
     48 H16          6.5180   -19.0950    45.5410 hc         1 QFF       0.042200
     49 H17          5.6200   -18.4770    44.1500 hc         1 QFF       0.042200
     50 H18          6.7680   -17.4210    45.0010 hc         1 QFF       0.042200
     51 H19          1.7110   -17.6500    46.8440 ha         1 QFF       0.165000
     52 H20          2.4140   -16.9380    39.6130 hn         1 QFF       0.347500
     53 H21          6.0770   -19.2460    38.8710 ha         1 QFF       0.128500
     54 H22          7.6390   -18.3590    37.1540 ha         1 QFF       0.119500
     55 H23          4.4140   -16.0610    35.4160 ha         1 QFF       0.119500
     56 H24          2.8580   -16.9480    37.1380 ha         1 QFF       0.128500
     57 H25          8.8390   -14.6550    32.9420 h5         1 QFF       0.053100
     58 H26          8.1760   -19.3150    33.3330 hc         1 QFF       0.051700
     59 H27          8.5610   -19.3030    35.0610 hc         1 QFF       0.051700
     60 H28          6.8710   -19.3680    34.5230 hc         1 QFF       0.051700
     61 O1           2.8410   -17.6040    43.8910 o          1 QFF      -0.603100
     62 H4           5.4950   -14.3750    43.5460 h1         1 QFF       0.063700
@<TRIPOS>BOND
     1     1    16 1   
     2     1    34 1   
     3     1    35 1   
     4     1    36 1   
     5     2     3 1   
     6     2     6 1   
     7     2    37 1   
     8     2    62 1   
     9     3     4 1   
    10     3     7 1   
    11     4     5 1   
    12     4    10 1   
    13     4    38 1   
    14     5     6 1   
    15     5    39 1   
    16     5    40 1   
    17     6    11 1   
    18     6    41 1   
    19     7     8 1   
    20     7    61 2   
    21     8     9 1   
    22     8    14 1   
    23     8    42 1   
    24     9    12 1   
    25     9    13 1   
    26     9    43 1   
    27    10    19 2   
    28    10    20 1   
    29    11    44 1   
    30    12    45 1   
    31    12    46 1   
    32    12    47 1   
    33    13    48 1   
    34    13    49 1   
    35    13    50 1   
    36    14    15 2   
    37    14    18 1   
    38    15    16 1   
    39    15    51 1   
    40    16    17 2   
    41    17    18 1   
    42    20    21 1   
    43    20    52 1   
    44    21    22 1   
    45    22    23 ar  
    46    22    27 ar  
    47    23    24 ar  
    48    23    53 1   
    49    24    25 ar  
    50    24    54 1   
    51    25    26 ar  
    52    25    28 1   
    53    26    27 ar  
    54    26    55 1   
    55    27    56 1   
    56    28    29 1   
    57    28    32 2   
    58    29    30 1   
    59    30    31 2   
    60    30    57 1   
    61    31    32 1   
    62    32    33 1   
    63    33    58 1   
    64    33    59 1   
    65    33    60 1   
@<TRIPOS>SUBSTRUCTURE
     1 QFF         1 TEMP              0 ****  ****    0 ROOT
