@<TRIPOS>MOLECULE
QFG
   39    40     1     0     0
SMALL
No Charge or Current Charge


@<TRIPOS>ATOM
      1 C           -1.1490    -3.3680    -0.8070 c          1 QFG       0.710000
      2 N           -2.8540    -1.7160     1.3500 n2         1 QFG      -0.745100
      3 O           -1.3600    -2.5850    -1.7240 o          1 QFG      -0.722500
      4 C1          -0.8780    -0.3740     0.6640 cc         1 QFG       0.476600
      5 C2           1.2590    -0.9460     0.1290 c          1 QFG       0.537200
      6 N2          -0.2930     0.8340     0.5310 nd         1 QFG      -0.665300
      7 O2           2.2680    -1.5810    -0.1590 o          1 QFG      -0.535000
      8 N3           0.0110    -1.4390     0.4390 n          1 QFG      -0.284300
      9 CZ           6.2170     1.4360    -0.4540 ca         1 QFG      -0.117000
     10 CA2          1.0180     0.5100     0.2080 cd         1 QFG       0.038400
     11 CA3         -0.2840    -2.9040     0.3890 c3         1 QFG      -0.057000
     12 CB1         -3.2110     0.6800     1.1680 c3         1 QFG      -0.158700
     13 CB2          1.9320     1.5210     0.0010 ce         1 QFG      -0.105200
     14 CD1          4.2040     0.6420     0.6640 ca         1 QFG      -0.093000
     15 CD2          4.0350     2.2920    -1.1140 ca         1 QFG      -0.093000
     16 CD3         -5.2160     2.0030     0.1180 c          1 QFG       0.607100
     17 CE1          5.6020     0.6230     0.5130 ca         1 QFG      -0.124000
     18 NE1         -6.1290     2.0980    -0.8700 nt         1 QFG      -0.618000
     19 OE1         -5.1570     2.8550     0.9880 o          1 QFG      -0.604100
     20 CE2          5.4330     2.2730    -1.2650 ca         1 QFG      -0.124000
     21 CG1         -4.2960     0.7740     0.0560 c3         1 QFG      -0.160400
     22 CG2          3.4110     1.4670    -0.1580 ca         1 QFG      -0.041800
     23 OXT         -1.5510    -4.5230    -0.8040 o          1 QFG      -0.722500
     24 HN          -3.8510    -1.5900     1.5710 hn         1 QFG       0.368400
     25 HZ           7.2980     1.4220    -0.5700 ha         1 QFG       0.099000
     26 HA3         -0.7790    -3.2100     1.3170 h1         1 QFG       0.059700
     27 HA3A         0.6570    -3.4650     0.3350 h1         1 QFG       0.059700
     28 HB1         -3.7030     0.6860     2.1490 hc         1 QFG       0.099700
     29 HB1A        -2.6180     1.6000     1.1460 hc         1 QFG       0.099700
     30 HB2          1.5180     2.5300     0.0220 ha         1 QFG       0.180000
     31 HD1          3.7400     0.0220     1.4270 ha         1 QFG       0.132000
     32 HD2          3.4340     2.9440    -1.7440 ha         1 QFG       0.132000
     33 HE1          6.2080    -0.0180     1.1490 ha         1 QFG       0.104000
     34 HNE1        -6.7630     2.8840    -0.8820 hn         1 QFG       0.306000
     35 HNEA        -6.1740     1.3890    -1.5870 hn         1 QFG       0.306000
     36 HE2          5.9070     2.9070    -2.0100 ha         1 QFG       0.104000
     37 HG1         -3.8530     0.7390    -0.9470 hc         1 QFG       0.054700
     38 HG1A        -4.9360    -0.1160     0.0260 hc         1 QFG       0.054700
     39 CA1         -2.3260    -0.5630     1.0580 ce         1 QFG       0.441000
@<TRIPOS>BOND
     1     1     3 1   
     2     1    11 1   
     3     1    23 1   
     4     2    24 1   
     5     2    39 2   
     6     4     6 2   
     7     4     8 1   
     8     4    39 1   
     9     5     7 2   
    10     5     8 1   
    11     5    10 1   
    12     6    10 1   
    13     8    11 1   
    14     9    17 ar  
    15     9    20 ar  
    16     9    25 1   
    17    10    13 2   
    18    11    26 1   
    19    11    27 1   
    20    12    21 1   
    21    12    28 1   
    22    12    29 1   
    23    12    39 1   
    24    13    22 1   
    25    13    30 1   
    26    14    17 ar  
    27    14    22 ar  
    28    14    31 1   
    29    15    20 ar  
    30    15    22 ar  
    31    15    32 1   
    32    16    18 1   
    33    16    19 2   
    34    16    21 1   
    35    17    33 1   
    36    18    34 1   
    37    18    35 1   
    38    20    36 1   
    39    21    37 1   
    40    21    38 1   
@<TRIPOS>SUBSTRUCTURE
     1 QFG         1 TEMP              0 ****  ****    0 ROOT
