@<TRIPOS>MOLECULE
QFG
   39    40     1     0     0
SMALL
abcg2


@<TRIPOS>ATOM
      1 C           -1.3920    -2.9970    -0.8440 c          1 QFG       0.710000
      2 N           -2.7210    -1.2330     1.5990 n2         1 QFG      -0.745100
      3 O           -1.5740    -1.9790    -1.5350 o          1 QFG      -0.722500
      4 C1          -0.8060    -0.3630     0.5620 cc         1 QFG       0.476600
      5 C2           1.2780    -1.1160     0.3920 c          1 QFG       0.537200
      6 N2          -0.1430     0.7290     0.4190 nd         1 QFG      -0.665300
      7 O2           2.2220    -1.8770     0.2960 o          1 QFG      -0.535000
      8 N3          -0.0260    -1.4980     0.5890 n          1 QFG      -0.284300
      9 CZ           6.3570     1.6270    -0.2810 ca         1 QFG      -0.117000
     10 CA2          1.2000     0.3670     0.3150 cd         1 QFG       0.038400
     11 CA3         -0.5040    -2.8480     0.4120 c3         1 QFG      -0.057000
     12 CB1         -3.0270     0.6820     0.0350 c3         1 QFG      -0.158700
     13 CB2          2.1370     1.3290     0.1600 ce         1 QFG      -0.105200
     14 CD1          4.4250     0.2210     0.0520 ca         1 QFG      -0.093000
     15 CD2          4.1690     2.6030    -0.1660 ca         1 QFG      -0.093000
     16 CD3         -5.2430     1.8130    -0.4020 c          1 QFG       0.607100
     17 CE1          5.7940     0.3690    -0.0960 ca         1 QFG      -0.124000
     18 NE1         -6.5740     1.6660    -0.4490 nt         1 QFG      -0.618000
     19 OE1         -4.6640     2.7720    -0.8910 o          1 QFG      -0.604100
     20 CE2          5.5370     2.7470    -0.3160 ca         1 QFG      -0.124000
     21 CG1         -4.5150     0.6990     0.3260 c3         1 QFG      -0.160400
     22 CG2          3.5820     1.3400     0.0190 ca         1 QFG      -0.041800
     23 OXT         -1.8360    -4.1430    -1.0330 o          1 QFG      -0.722500
     24 HN          -3.7290    -1.1500     1.7110 hn         1 QFG       0.368400
     25 HZ           7.4280     1.7320    -0.3960 ha         1 QFG       0.099000
     26 HA3         -1.0530    -3.1720     1.2940 h1         1 QFG       0.059700
     27 HA3A         0.3690    -3.4960     0.3210 h1         1 QFG       0.059700
     28 HB1         -2.5780     1.6490     0.2690 hc         1 QFG       0.099700
     29 HB1A        -2.8440     0.5180    -1.0300 hc         1 QFG       0.099700
     30 HB2          1.7010     2.3230     0.1330 ha         1 QFG       0.180000
     31 HD1          4.0110    -0.7650     0.1940 ha         1 QFG       0.132000
     32 HD2          3.5350     3.4810    -0.1920 ha         1 QFG       0.132000
     33 HE1          6.4300    -0.5060    -0.0670 ha         1 QFG       0.104000
     34 HNE1        -7.1550     2.3880    -0.8430 hn         1 QFG       0.306000
     35 HNEA        -7.0370     0.8820    -0.0210 hn         1 QFG       0.306000
     36 HE2          5.9620     3.7310    -0.4600 ha         1 QFG       0.104000
     37 HG1         -4.9760    -0.2580     0.0670 hc         1 QFG       0.054700
     38 HG1A        -4.6960     0.8430     1.3970 hc         1 QFG       0.054700
     39 CA1         -2.2700    -0.3770     0.7830 ce         1 QFG       0.441000
@<TRIPOS>BOND
     1     1     3 1   
     2     1    11 1   
     3     1    23 1   
     4     2    24 1   
     5     2    39 2   
     6     4     6 2   
     7     4     8 1   
     8     4    39 1   
     9     5     7 2   
    10     5     8 1   
    11     5    10 1   
    12     6    10 1   
    13     8    11 1   
    14     9    17 ar  
    15     9    20 ar  
    16     9    25 1   
    17    10    13 2   
    18    11    26 1   
    19    11    27 1   
    20    12    21 1   
    21    12    28 1   
    22    12    29 1   
    23    12    39 1   
    24    13    22 1   
    25    13    30 1   
    26    14    17 ar  
    27    14    22 ar  
    28    14    31 1   
    29    15    20 ar  
    30    15    22 ar  
    31    15    32 1   
    32    16    18 1   
    33    16    19 2   
    34    16    21 1   
    35    17    33 1   
    36    18    34 1   
    37    18    35 1   
    38    20    36 1   
    39    21    37 1   
    40    21    38 1   
@<TRIPOS>SUBSTRUCTURE
     1 QFG         1 TEMP              0 ****  ****    0 ROOT
