@<TRIPOS>MOLECULE
QFH
   18    17     1     0     0
SMALL
abcg2


@<TRIPOS>ATOM
      1 OA4         -1.2340     1.6450     0.1620 oh         1 QFH      -0.657000
      2 CA5         -2.5460    -0.3830     0.3250 c3         1 QFH      -0.114100
      3 CA3         -0.2740    -0.7300    -1.6280 c3         1 QFH      -0.058100
      4 CA2         -0.0290    -0.4900    -0.1450 c3         1 QFH       0.004000
      5 OA3          0.0860    -1.7420     0.5040 oh         1 QFH      -0.707000
      6 CA1          1.2860     0.2980     0.0960 c          1 QFH       0.707000
      7 C3          -1.1910     0.2820     0.5320 c3         1 QFH       0.163300
      8 OA1          1.9220    -0.0650     1.1140 o          1 QFH      -0.718000
      9 OA2          1.6010     1.1940    -0.7000 o          1 QFH      -0.718000
     10 HA4         -1.3230     1.7020    -0.7940 ho         1 QFH       0.432000
     11 H3          -0.9690     0.2880     1.6050 h1         1 QFH       0.068700
     12 HA51        -2.8760    -0.3100    -0.7140 hc         1 QFH       0.022367
     13 HA52        -2.5180    -1.4380     0.5920 hc         1 QFH       0.022367
     14 HA53        -3.3040     0.0990     0.9440 hc         1 QFH       0.022367
     15 HA31        -1.1000    -1.4250    -1.7850 hc         1 QFH       0.018367
     16 HA32        -0.5150     0.1910    -2.1600 hc         1 QFH       0.018367
     17 HA33         0.6100    -1.1550    -2.1060 hc         1 QFH       0.018367
     18 HA3          0.8110    -1.5870     1.1350 ho         1 QFH       0.473000
@<TRIPOS>BOND
     1     1     7 1   
     2     1    10 1   
     3     2     7 1   
     4     2    12 1   
     5     2    13 1   
     6     2    14 1   
     7     3     4 1   
     8     3    15 1   
     9     3    16 1   
    10     3    17 1   
    11     4     5 1   
    12     4     6 1   
    13     4     7 1   
    14     5    18 1   
    15     6     8 1   
    16     6     9 1   
    17     7    11 1   
@<TRIPOS>SUBSTRUCTURE
     1 QFH         1 TEMP              0 ****  ****    0 ROOT
