@<TRIPOS>MOLECULE
QFH
   18    17     1     0     0
SMALL
No Charge or Current Charge


@<TRIPOS>ATOM
      1 OA4         -1.3320     1.6280     0.0110 oh         1 QFH      -0.657000
      2 CA5         -2.5840    -0.3900     0.4240 c3         1 QFH      -0.114100
      3 CA3         -0.2150    -0.6430    -1.6870 c3         1 QFH      -0.058100
      4 CA2         -0.0120    -0.4660    -0.1510 c3         1 QFH       0.004000
      5 OA3          0.0720    -1.8060     0.4160 oh         1 QFH      -0.707000
      6 CA1          1.3230     0.3230     0.1720 c          1 QFH       0.707000
      7 C3          -1.2020     0.3000     0.5360 c3         1 QFH       0.163300
      8 OA1          1.9110     0.0020     1.2000 o          1 QFH      -0.718000
      9 OA2          1.8350     1.0390    -0.6800 o          1 QFH      -0.718000
     10 HA4         -1.6010     1.5360    -0.9280 ho         1 QFH       0.432000
     11 H3          -0.9640     0.3650     1.6080 h1         1 QFH       0.068700
     12 HA51        -2.9170    -0.4610    -0.6180 hc         1 QFH       0.022367
     13 HA52        -2.5560    -1.4010     0.8470 hc         1 QFH       0.022367
     14 HA53        -3.3400     0.1780     0.9810 hc         1 QFH       0.022367
     15 HA31        -1.0970    -1.2580    -1.9060 hc         1 QFH       0.018367
     16 HA32        -0.3430     0.3220    -2.1910 hc         1 QFH       0.018367
     17 HA33         0.6530    -1.1420    -2.1350 hc         1 QFH       0.018367
     18 HA3          0.8040    -1.7510     1.0790 ho         1 QFH       0.473000
@<TRIPOS>BOND
     1     1     7 1   
     2     1    10 1   
     3     2     7 1   
     4     2    12 1   
     5     2    13 1   
     6     2    14 1   
     7     3     4 1   
     8     3    15 1   
     9     3    16 1   
    10     3    17 1   
    11     4     5 1   
    12     4     6 1   
    13     4     7 1   
    14     5    18 1   
    15     6     8 1   
    16     6     9 1   
    17     7    11 1   
@<TRIPOS>SUBSTRUCTURE
     1 QFH         1 TEMP              0 ****  ****    0 ROOT
