@<TRIPOS>MOLECULE
QFJ
   29    28     1     0     0
SMALL
abcg2


@<TRIPOS>ATOM
      1 CAA        -22.7150     4.8510    46.7350 c3         1 QFJ       0.074233
      2 CAC        -20.8160     4.9640    45.2430 c3         1 QFJ       0.074233
      3 CAD        -20.8830     3.2900    47.0100 c3         1 QFJ       0.074233
      4 CAE        -22.4490     3.0920    45.1100 c3         1 QFJ       0.111600
      5 CAF        -21.6570     2.0470    44.3470 c3         1 QFJ       0.010600
      6 CAH        -19.0950     2.4270    43.2520 c          1 QFJ       0.619700
      7 CAI        -18.1840     2.7670    42.1010 c3         1 QFJ      -0.167400
      8 CAK        -18.4040     4.1700    41.5380 c3         1 QFJ      -0.089100
      9 NAB        -21.6950     4.0370    46.0090 n4         1 QFJ      -0.495000
     10 OAJ        -18.7170     2.0600    44.3340 o          1 QFJ      -0.515100
     11 SAG        -20.8200     2.6120    42.8430 ss         1 QFJ      -0.352600
     12 H1         -23.3570     4.1890    47.3100 hx         1 QFJ       0.098811
     13 H2         -22.2070     5.5410    47.4020 hx         1 QFJ       0.098811
     14 H3         -23.3070     5.4060    46.0130 hx         1 QFJ       0.098811
     15 H4         -20.4640     5.7420    45.9160 hx         1 QFJ       0.098811
     16 H5         -19.9620     4.4260    44.8530 hx         1 QFJ       0.098811
     17 H6         -21.3840     5.4100    44.4320 hx         1 QFJ       0.098811
     18 H7         -21.5320     2.6200    47.5660 hx         1 QFJ       0.098811
     19 H8         -20.1050     2.7230    46.5090 hx         1 QFJ       0.098811
     20 H9         -20.4230     4.0040    47.6880 hx         1 QFJ       0.098811
     21 H10        -23.0360     3.7100    44.4310 hx         1 QFJ       0.099200
     22 H11        -23.1430     2.5620    45.7610 hx         1 QFJ       0.099200
     23 H12        -22.3950     1.3190    44.0110 h1         1 QFJ       0.114700
     24 H13        -20.9560     1.4980    44.9740 h1         1 QFJ       0.114700
     25 H14        -17.1600     2.6530    42.4550 hc         1 QFJ       0.093700
     26 H15        -18.3430     2.0220    41.3150 hc         1 QFJ       0.093700
     27 H16        -17.6580     4.3720    40.7710 hc         1 QFJ       0.051367
     28 H17        -19.3850     4.2810    41.0780 hc         1 QFJ       0.051367
     29 H18        -18.3010     4.9300    42.3120 hc         1 QFJ       0.051367
@<TRIPOS>BOND
     1     1     9 1   
     2     1    12 1   
     3     1    13 1   
     4     1    14 1   
     5     2     9 1   
     6     2    15 1   
     7     2    16 1   
     8     2    17 1   
     9     3     9 1   
    10     3    18 1   
    11     3    19 1   
    12     3    20 1   
    13     4     5 1   
    14     4     9 1   
    15     4    21 1   
    16     4    22 1   
    17     5    11 1   
    18     5    23 1   
    19     5    24 1   
    20     6     7 1   
    21     6    10 2   
    22     6    11 1   
    23     7     8 1   
    24     7    25 1   
    25     7    26 1   
    26     8    27 1   
    27     8    28 1   
    28     8    29 1   
@<TRIPOS>SUBSTRUCTURE
     1 QFJ         1 TEMP              0 ****  ****    0 ROOT
