@<TRIPOS>MOLECULE
QFJ
   29    28     1     0     0
SMALL
No Charge or Current Charge


@<TRIPOS>ATOM
      1 CAA        -22.6530     4.9220    46.6430 c3         1 QFJ       0.074233
      2 CAC        -20.9490     4.9210    44.8330 c3         1 QFJ       0.074233
      3 CAD        -20.6650     3.4300    46.8350 c3         1 QFJ       0.074233
      4 CAE        -22.4980     2.9260    45.1520 c3         1 QFJ       0.111600
      5 CAF        -21.7750     1.7590    44.4330 c3         1 QFJ       0.010600
      6 CAH        -19.2390     2.3020    43.2340 c          1 QFJ       0.619700
      7 CAI        -18.3520     2.8110    42.0980 c3         1 QFJ      -0.167400
      8 CAK        -18.1900     4.3490    42.1460 c3         1 QFJ      -0.089100
      9 NAB        -21.6800     4.0350    45.8520 n4         1 QFJ      -0.495000
     10 OAJ        -18.8050     2.0680    44.3520 o          1 QFJ      -0.515100
     11 SAG        -21.0110     2.2660    42.8150 ss         1 QFJ      -0.352600
     12 H1         -23.1750     4.3140    47.3840 hx         1 QFJ       0.098811
     13 H2         -22.0930     5.7130    47.1460 hx         1 QFJ       0.098811
     14 H3         -23.3770     5.3660    45.9560 hx         1 QFJ       0.098811
     15 H4         -20.4750     5.7540    45.3560 hx         1 QFJ       0.098811
     16 H5         -20.1860     4.3360    44.3230 hx         1 QFJ       0.098811
     17 H6         -21.6680     5.3060    44.1060 hx         1 QFJ       0.098811
     18 H7         -21.1930     2.8110    47.5640 hx         1 QFJ       0.098811
     19 H8         -19.9460     2.8190    46.2880 hx         1 QFJ       0.098811
     20 H9         -20.1390     4.2350    47.3510 hx         1 QFJ       0.098811
     21 H10        -23.1660     3.4100    44.4360 hx         1 QFJ       0.099200
     22 H11        -23.1270     2.4790    45.9260 hx         1 QFJ       0.099200
     23 H12        -22.5290     0.9940    44.2090 h1         1 QFJ       0.114700
     24 H13        -21.0380     1.2900    45.0960 h1         1 QFJ       0.114700
     25 H14        -17.3630     2.3460    42.1790 hc         1 QFJ       0.093700
     26 H15        -18.8200     2.5590    41.1400 hc         1 QFJ       0.093700
     27 H16        -17.5460     4.6920    41.3270 hc         1 QFJ       0.051367
     28 H17        -19.1620     4.8470    42.0460 hc         1 QFJ       0.051367
     29 H18        -17.7350     4.6630    43.0930 hc         1 QFJ       0.051367
@<TRIPOS>BOND
     1     1     9 1   
     2     1    12 1   
     3     1    13 1   
     4     1    14 1   
     5     2     9 1   
     6     2    15 1   
     7     2    16 1   
     8     2    17 1   
     9     3     9 1   
    10     3    18 1   
    11     3    19 1   
    12     3    20 1   
    13     4     5 1   
    14     4     9 1   
    15     4    21 1   
    16     4    22 1   
    17     5    11 1   
    18     5    23 1   
    19     5    24 1   
    20     6     7 1   
    21     6    10 2   
    22     6    11 1   
    23     7     8 1   
    24     7    25 1   
    25     7    26 1   
    26     8    27 1   
    27     8    28 1   
    28     8    29 1   
@<TRIPOS>SUBSTRUCTURE
     1 QFJ         1 TEMP              0 ****  ****    0 ROOT
