@<TRIPOS>MOLECULE
QFK
   53    56     1     0     0
SMALL
No Charge or Current Charge


@<TRIPOS>ATOM
      1 C1          -2.9060    -2.1590    13.7010 cc         1 QFK       0.341800
      2 C2          -1.9260    -0.1810    13.7770 cd         1 QFK      -0.082600
      3 C3          -1.0160    -1.0930    14.2830 cc         1 QFK      -0.040000
      4 N6           5.0540     2.9510    14.5540 nc         1 QFK      -0.527800
      5 C7           0.3050    -0.9500    14.7900 cc         1 QFK      -0.116000
      6 C8           3.3200    -1.2710    15.6980 ca         1 QFK       0.402900
      7 C9           5.4400    -0.8630    16.4320 ca         1 QFK       0.154900
      8 C10          5.4680     0.3120    15.6660 ca         1 QFK      -0.253000
      9 C11          4.3290     0.6530    14.9000 ca         1 QFK       0.284500
     10 C12          3.6050     1.9970    12.9770 cc         1 QFK      -0.104000
     11 C13          3.8630     3.2960    12.6280 cd         1 QFK      -0.200300
     12 C14          4.7400     3.8220    13.6090 cd         1 QFK       0.284900
     13 C15          3.3180     4.0510    11.4470 c3         1 QFK       0.245100
     14 C16          1.9090     5.9160    10.6890 c3         1 QFK       0.148100
     15 C19         -2.7750     3.3960    12.8380 c3         1 QFK       0.099300
     16 O           -0.6310     1.8700    13.9710 o          1 QFK      -0.643100
     17 C18         -1.6600     1.2940    13.6460 c          1 QFK       0.656300
     18 N8          -2.7310     1.9590    13.1020 ns         1 QFK      -0.493900
     19 N           -3.1030    -0.8710    13.4190 nd         1 QFK      -0.539300
     20 C6           0.9470    -2.0930    15.2160 cd         1 QFK       0.321000
     21 C5           0.2290    -3.3510    15.1540 cd         1 QFK      -0.174000
     22 C4          -1.0740    -3.4860    14.6610 cc         1 QFK      -0.082000
     23 N1          -1.6400    -2.2870    14.2130 na         1 QFK       0.036200
     24 C           -3.9030    -3.2640    13.4870 c3         1 QFK      -0.098400
     25 N2           2.2260    -2.1270    15.7280 nu         1 QFK      -0.923900
     26 N4           3.2590    -0.1720    14.9300 nb         1 QFK      -0.271000
     27 N3           4.3590    -1.6620    16.4500 nb         1 QFK      -0.250000
     28 N5           4.3560     1.8350    14.1340 na         1 QFK       0.089300
     29 N7           2.2820     5.0410    11.8220 n3         1 QFK      -0.711600
     30 C17          1.0980     4.4310    12.4720 c3         1 QFK       0.148100
     31 H1           0.7640     0.0250    14.8450 ha         1 QFK       0.185000
     32 H2           6.2910    -1.1690    17.0370 h4         1 QFK       0.028100
     33 H3           6.3560     0.9380    15.6670 ha         1 QFK       0.166000
     34 H4           2.9870     1.2240    12.5340 h4         1 QFK       0.194000
     35 H5           5.1500     4.8230    13.6590 h4         1 QFK       0.046100
     36 H6           4.1610     4.5590    10.9560 h1         1 QFK       0.041200
     37 H7           2.9110     3.3320    10.7230 h1         1 QFK       0.041200
     38 H8           1.2000     6.6900    11.0140 h1         1 QFK       0.030533
     39 H9           2.7940     6.4200    10.2790 h1         1 QFK       0.030533
     40 H10          1.4380     5.3350     9.8840 h1         1 QFK       0.030533
     41 H11         -3.7620     3.6660    12.4430 h1         1 QFK       0.036367
     42 H12         -2.5940     3.9490    13.7700 h1         1 QFK       0.036367
     43 H13         -2.0050     3.6600    12.1020 h1         1 QFK       0.036367
     44 H14         -3.5310     1.3800    12.8710 hn         1 QFK       0.337500
     45 H15          0.7270    -4.2490    15.5030 ha         1 QFK       0.131000
     46 H16         -1.6440    -4.4040    14.5950 h4         1 QFK       0.148000
     47 H17         -4.8290    -2.8780    13.0470 hc         1 QFK       0.056033
     48 H18         -3.4990    -4.0250    12.8100 hc         1 QFK       0.056033
     49 H19         -4.1560    -3.7480    14.4370 hc         1 QFK       0.056033
     50 H20          2.4390    -3.0020    16.2060 hn         1 QFK       0.516000
     51 H22          1.3810     3.8950    13.3870 h1         1 QFK       0.030533
     52 H23          0.3690     5.2030    12.7520 h1         1 QFK       0.030533
     53 H24          0.6020     3.7210    11.7960 h1         1 QFK       0.030533
@<TRIPOS>BOND
     1     1    19 2   
     2     1    23 1   
     3     1    24 1   
     4     2     3 2   
     5     2    17 1   
     6     2    19 1   
     7     3     5 1   
     8     3    23 1   
     9     4    12 2   
    10     4    28 1   
    11     5    20 2   
    12     5    31 1   
    13     6    25 1   
    14     6    26 ar  
    15     6    27 ar  
    16     7     8 ar  
    17     7    27 ar  
    18     7    32 1   
    19     8     9 ar  
    20     8    33 1   
    21     9    26 ar  
    22     9    28 1   
    23    10    11 2   
    24    10    28 1   
    25    10    34 1   
    26    11    12 1   
    27    11    13 1   
    28    12    35 1   
    29    13    29 1   
    30    13    36 1   
    31    13    37 1   
    32    14    29 1   
    33    14    38 1   
    34    14    39 1   
    35    14    40 1   
    36    15    18 1   
    37    15    41 1   
    38    15    42 1   
    39    15    43 1   
    40    16    17 2   
    41    17    18 1   
    42    18    44 1   
    43    20    21 1   
    44    20    25 1   
    45    21    22 2   
    46    21    45 1   
    47    22    23 1   
    48    22    46 1   
    49    24    47 1   
    50    24    48 1   
    51    24    49 1   
    52    25    50 1   
    53    29    30 1   
    54    30    51 1   
    55    30    52 1   
    56    30    53 1   
@<TRIPOS>SUBSTRUCTURE
     1 QFK         1 TEMP              0 ****  ****    0 ROOT
