@<TRIPOS>MOLECULE
QFK
   53    56     1     0     0
SMALL
bcc


@<TRIPOS>ATOM
      1 C1          -2.8160    -2.0490    13.7250 cc         1 QFK       0.341800
      2 C2          -1.6730    -0.2510    13.3900 cd         1 QFK      -0.082600
      3 C3          -0.8340    -1.0920    14.1070 cc         1 QFK       0.010700
      4 N6           5.1550     2.5370    13.9480 nc         1 QFK      -0.527800
      5 C7           0.4830    -1.0280    14.6050 cc         1 QFK      -0.134000
      6 C8           3.3440    -1.3520    15.6850 ca         1 QFK       0.928900
      7 C9           5.4820    -0.9410    16.2590 ca         1 QFK       0.483200
      8 C10          5.5000     0.2230    15.5080 ca         1 QFK      -0.401600
      9 C11          4.3120     0.5070    14.8490 ca         1 QFK       0.612800
     10 C12          3.0870     1.9700    13.2930 cc         1 QFK      -0.071300
     11 C13          3.3890     3.1480    12.6740 cd         1 QFK      -0.265600
     12 C14          4.6970     3.4510    13.1300 cd         1 QFK       0.350200
     13 C15          2.5290     3.9360    11.7450 c3         1 QFK       0.245100
     14 C16          1.5360     6.0470    11.2660 c3         1 QFK       0.148100
     15 C19         -2.1830     3.0130    11.6440 c3         1 QFK       0.099300
     16 O           -0.2810     1.6340    13.1280 o          1 QFK      -0.643100
     17 C18         -1.3650     1.0920    12.9050 c          1 QFK       0.723300
     18 N8          -2.3380     1.6930    12.2030 ns         1 QFK      -0.560900
     19 N           -2.8710    -0.8700    13.1770 nd         1 QFK      -0.539300
     20 C6           1.0010    -2.1070    15.2720 cd         1 QFK       0.182600
     21 C5           0.1750    -3.2650    15.4680 cd         1 QFK      -0.192000
     22 C4          -1.0840    -3.3090    14.9910 cc         1 QFK      -0.049300
     23 N1          -1.5850    -2.2350    14.3100 na         1 QFK      -0.065200
     24 C           -3.8790    -3.0810    13.7480 c3         1 QFK      -0.098400
     25 N2           2.2750    -2.1910    15.8030 nu         1 QFK      -0.730300
     26 N4           3.2430    -0.2650    14.9370 nb         1 QFK      -0.797000
     27 N3           4.4300    -1.7350    16.3610 nb         1 QFK      -0.776000
     28 N5           4.1700     1.6330    14.0460 na         1 QFK       0.038600
     29 N7           2.2040     5.2500    12.2730 n3         1 QFK      -0.711600
     30 C17          1.4050     5.1700    13.4770 c3         1 QFK       0.148100
     31 H1           1.0500    -0.1310    14.4450 ha         1 QFK       0.203000
     32 H2           6.3690    -1.2440    16.8040 h4         1 QFK       0.028100
     33 H3           6.3740     0.8490    15.4420 ha         1 QFK       0.184000
     34 H4           2.1980     1.3650    13.2510 h4         1 QFK       0.212000
     35 H5           5.3040     4.3090    12.8790 h4         1 QFK       0.046100
     36 H6           3.0580     4.0780    10.7980 h1         1 QFK       0.041200
     37 H7           1.6230     3.3530    11.5080 h1         1 QFK       0.041200
     38 H8           1.3450     7.0500    11.6500 h1         1 QFK       0.030533
     39 H9           2.1670     6.1410    10.3810 h1         1 QFK       0.030533
     40 H10          0.5710     5.6220    10.9480 h1         1 QFK       0.030533
     41 H11         -3.0970     3.2730    11.1170 h1         1 QFK       0.036367
     42 H12         -2.0080     3.7640    12.4150 h1         1 QFK       0.036367
     43 H13         -1.3550     3.0600    10.9350 h1         1 QFK       0.036367
     44 H14         -3.2010     1.1950    12.0570 hn         1 QFK       0.337500
     45 H15          0.5580    -4.1260    16.0000 ha         1 QFK       0.149000
     46 H16         -1.7330    -4.1630    15.1150 h4         1 QFK       0.166000
     47 H17         -4.7600    -2.7010    13.2370 hc         1 QFK       0.056033
     48 H18         -3.5630    -3.9980    13.2470 hc         1 QFK       0.056033
     49 H19         -4.1650    -3.3450    14.7680 hc         1 QFK       0.056033
     50 H20          2.4750    -3.0120    16.3550 hn         1 QFK       0.460800
     51 H22          1.9370     4.6250    14.2580 h1         1 QFK       0.030533
     52 H23          1.2030     6.1740    13.8530 h1         1 QFK       0.030533
     53 H24          0.4360     4.6680    13.3200 h1         1 QFK       0.030533
@<TRIPOS>BOND
     1     1    19 2   
     2     1    23 1   
     3     1    24 1   
     4     2     3 2   
     5     2    17 1   
     6     2    19 1   
     7     3     5 1   
     8     3    23 1   
     9     4    12 2   
    10     4    28 1   
    11     5    20 2   
    12     5    31 1   
    13     6    25 1   
    14     6    26 ar  
    15     6    27 ar  
    16     7     8 ar  
    17     7    27 ar  
    18     7    32 1   
    19     8     9 ar  
    20     8    33 1   
    21     9    26 ar  
    22     9    28 1   
    23    10    11 2   
    24    10    28 1   
    25    10    34 1   
    26    11    12 1   
    27    11    13 1   
    28    12    35 1   
    29    13    29 1   
    30    13    36 1   
    31    13    37 1   
    32    14    29 1   
    33    14    38 1   
    34    14    39 1   
    35    14    40 1   
    36    15    18 1   
    37    15    41 1   
    38    15    42 1   
    39    15    43 1   
    40    16    17 2   
    41    17    18 1   
    42    18    44 1   
    43    20    21 1   
    44    20    25 1   
    45    21    22 2   
    46    21    45 1   
    47    22    23 1   
    48    22    46 1   
    49    24    47 1   
    50    24    48 1   
    51    24    49 1   
    52    25    50 1   
    53    29    30 1   
    54    30    51 1   
    55    30    52 1   
    56    30    53 1   
@<TRIPOS>SUBSTRUCTURE
     1 QFK         1 TEMP              0 ****  ****    0 ROOT
