@<TRIPOS>MOLECULE
QFL
   34    36     1     0     0
SMALL
No Charge or Current Charge


@<TRIPOS>ATOM
      1 N1         -16.7020     3.9450    25.9600 nb         1 QFL      -0.652000
      2 C4         -22.2480     5.3120    28.0620 c3         1 QFL      -0.104100
      3 C5         -20.7890     5.7170    27.8180 c          1 QFL       0.594100
      4 C6         -18.8100     5.1060    26.3440 ca         1 QFL      -0.073000
      5 C7         -17.9900     3.9580    26.3690 ca         1 QFL       0.305900
      6 C8         -16.1820     5.1020    25.4930 ca         1 QFL       0.357900
      7 C10        -16.3260     7.4650    24.8820 ca         1 QFL      -0.085000
      8 C13        -19.0210     7.4990    25.6890 ca         1 QFL      -0.085000
      9 C15        -22.5340     4.9740    30.5690 ca         1 QFL      -0.068000
     10 O          -20.2370     6.5960    28.4710 o          1 QFL      -0.562100
     11 C3         -22.3610     4.4110    29.2880 ca         1 QFL      -0.089300
     12 C2         -22.2840     3.0100    29.1500 ca         1 QFL      -0.068000
     13 C1         -22.3820     2.1810    30.2820 ca         1 QFL      -0.144000
     14 C16        -22.6320     4.1440    31.6990 ca         1 QFL      -0.144000
     15 C          -22.5560     2.7510    31.5520 ca         1 QFL       0.170000
     16 F          -22.6500     1.9540    32.6390 f          1 QFL      -0.183000
     17 N          -20.1410     4.9900    26.8310 ns         1 QFL      -0.174000
     18 C14        -18.2690     6.3100    25.8260 ca         1 QFL      -0.002000
     19 C12        -18.4240     8.6610    25.1680 ca         1 QFL      -0.093000
     20 C11        -17.0770     8.6460    24.7700 ca         1 QFL      -0.105000
     21 C9         -16.9210     6.2980    25.4010 ca         1 QFL      -0.090000
     22 H1         -22.8420     6.2200    28.2180 hc         1 QFL       0.064200
     23 H2         -22.6330     4.7750    27.1860 hc         1 QFL       0.064200
     24 H3         -18.3780     3.0130    26.7490 h4         1 QFL       0.019100
     25 H4         -15.1410     5.0650    25.1700 h4         1 QFL       0.022100
     26 H5         -15.2860     7.4560    24.5610 ha         1 QFL       0.118000
     27 H6         -20.0690     7.5380    25.9690 ha         1 QFL       0.121000
     28 H8         -22.1490     2.5610    28.1670 ha         1 QFL       0.115500
     29 H9         -22.3240     1.1010    30.1760 ha         1 QFL       0.134000
     30 H10        -22.7660     4.5780    32.6870 ha         1 QFL       0.134000
     31 H11        -20.6860     4.2460    26.4140 hn         1 QFL       0.154000
     32 H12        -19.0080     9.5730    25.0680 ha         1 QFL       0.116000
     33 H13        -16.6190     9.5460    24.3670 ha         1 QFL       0.117000
     34 H7         -22.5910     6.0540    30.6890 ha         1 QFL       0.115500
@<TRIPOS>BOND
     1     1     5 ar  
     2     1     6 ar  
     3     2     3 1   
     4     2    11 1   
     5     2    22 1   
     6     2    23 1   
     7     3    10 2   
     8     3    17 1   
     9     4     5 ar  
    10     4    17 1   
    11     4    18 ar  
    12     5    24 1   
    13     6    21 ar  
    14     6    25 1   
    15     7    20 ar  
    16     7    21 ar  
    17     7    26 1   
    18     8    18 ar  
    19     8    19 ar  
    20     8    27 1   
    21     9    11 ar  
    22     9    14 ar  
    23     9    34 1   
    24    11    12 ar  
    25    12    13 ar  
    26    12    28 1   
    27    13    15 ar  
    28    13    29 1   
    29    14    15 ar  
    30    14    30 1   
    31    15    16 1   
    32    17    31 1   
    33    18    21 ar  
    34    19    20 ar  
    35    19    32 1   
    36    20    33 1   
@<TRIPOS>SUBSTRUCTURE
     1 QFL         1 TEMP              0 ****  ****    0 ROOT
