@<TRIPOS>MOLECULE
QFL
   34    36     1     0     0
SMALL
abcg2


@<TRIPOS>ATOM
      1 N1         -16.8010     4.0490    24.8810 nb         1 QFL      -0.652000
      2 C4         -21.9950     4.5770    27.8390 c3         1 QFL      -0.104100
      3 C5         -20.5270     4.8990    27.5770 c          1 QFL       0.594100
      4 C6         -18.8260     4.9600    25.8130 ca         1 QFL      -0.073000
      5 C7         -18.0580     3.9110    25.3700 ca         1 QFL       0.305900
      6 C8         -16.2860     5.2570    24.8470 ca         1 QFL       0.357900
      7 C10        -16.3880     7.7050    25.1900 ca         1 QFL      -0.085000
      8 C13        -19.0200     7.4380    26.1320 ca         1 QFL      -0.085000
      9 C15        -22.7180     5.1410    30.1880 ca         1 QFL      -0.068000
     10 O          -19.7740     5.3320    28.4380 o          1 QFL      -0.562100
     11 C3         -22.2710     4.1960    29.2670 ca         1 QFL      -0.089300
     12 C2         -22.0590     2.8860    29.6990 ca         1 QFL      -0.068000
     13 C1         -22.2830     2.5200    31.0210 ca         1 QFL      -0.144000
     14 C16        -22.9500     4.7980    31.5160 ca         1 QFL      -0.144000
     15 C          -22.7240     3.4900    31.9030 ca         1 QFL       0.170000
     16 F          -22.9480     3.1430    33.1990 f          1 QFL      -0.183000
     17 N          -20.1390     4.7110    26.2860 ns         1 QFL      -0.174000
     18 C14        -18.3030     6.2780    25.7570 ca         1 QFL      -0.002000
     19 C12        -18.4280     8.6720    26.0390 ca         1 QFL      -0.093000
     20 C11        -17.1010     8.8110    25.5730 ca         1 QFL      -0.105000
     21 C9         -16.9740     6.4200    25.2670 ca         1 QFL      -0.090000
     22 H1         -22.5580     5.4750    27.5710 hc         1 QFL       0.064200
     23 H2         -22.3190     3.7860    27.1600 hc         1 QFL       0.064200
     24 H3         -18.4590     2.9040    25.4030 h4         1 QFL       0.019100
     25 H4         -15.2730     5.3560    24.4680 h4         1 QFL       0.022100
     26 H5         -15.3740     7.7960    24.8200 ha         1 QFL       0.118000
     27 H6         -20.0350     7.3460    26.4880 ha         1 QFL       0.121000
     28 H8         -21.7150     2.1380    28.9940 ha         1 QFL       0.115500
     29 H9         -22.1240     1.5060    31.3630 ha         1 QFL       0.134000
     30 H10        -23.2990     5.5250    32.2360 ha         1 QFL       0.134000
     31 H11        -20.7700     4.2180    25.6720 hn         1 QFL       0.154000
     32 H12        -18.9840     9.5560    26.3260 ha         1 QFL       0.116000
     33 H13        -16.6560     9.7960    25.5140 ha         1 QFL       0.117000
     34 H7         -22.8890     6.1610    29.8670 ha         1 QFL       0.115500
@<TRIPOS>BOND
     1     1     5 ar  
     2     1     6 ar  
     3     2     3 1   
     4     2    11 1   
     5     2    22 1   
     6     2    23 1   
     7     3    10 2   
     8     3    17 1   
     9     4     5 ar  
    10     4    17 1   
    11     4    18 ar  
    12     5    24 1   
    13     6    21 ar  
    14     6    25 1   
    15     7    20 ar  
    16     7    21 ar  
    17     7    26 1   
    18     8    18 ar  
    19     8    19 ar  
    20     8    27 1   
    21     9    11 ar  
    22     9    14 ar  
    23     9    34 1   
    24    11    12 ar  
    25    12    13 ar  
    26    12    28 1   
    27    13    15 ar  
    28    13    29 1   
    29    14    15 ar  
    30    14    30 1   
    31    15    16 1   
    32    17    31 1   
    33    18    21 ar  
    34    19    20 ar  
    35    19    32 1   
    36    20    33 1   
@<TRIPOS>SUBSTRUCTURE
     1 QFL         1 TEMP              0 ****  ****    0 ROOT
