@<TRIPOS>MOLECULE
QFN
   50    54     1     0     0
SMALL
abcg2


@<TRIPOS>ATOM
      1 C3          -6.1040    -9.2260     0.3480 cc         1 QFN       0.291300
      2 C11        -11.4370    -7.2820    -0.8410 cc         1 QFN      -0.035400
      3 C12        -12.6310    -5.2010    -1.0630 c          1 QFN       0.546200
      4 C13        -11.3540    -4.5520    -1.2640 cc         1 QFN      -0.195400
      5 C15        -10.2070    -5.2800    -1.2250 cd         1 QFN      -0.091000
      6 C16         -8.4250    -6.8620     1.3990 ca         1 QFN      -0.097300
      7 C17         -7.5900    -5.7690     1.1870 ca         1 QFN      -0.080500
      8 C18         -8.2310    -4.8570     3.3000 ca         1 QFN       0.128000
      9 C19         -9.0670    -5.9350     3.5330 ca         1 QFN      -0.105500
     10 C20         -7.4880    -4.7620     2.1300 ca         1 QFN      -0.105500
     11 C21         -9.1590    -6.9340     2.5720 ca         1 QFN      -0.080500
     12 C25        -11.3690    -3.0760    -1.4920 c3         1 QFN      -0.031900
     13 C26         -5.7350    -9.6730     1.7180 c3         1 QFN      -0.120400
     14 C27         -5.3470    -9.0490    -3.0740 cx         1 QFN       0.014300
     15 C28         -5.1880    -7.8260    -3.9160 cx         1 QFN      -0.116900
     16 C29         -3.9850    -8.4950    -3.3290 cx         1 QFN      -0.116900
     17 N1          -5.3120    -9.4350    -0.6980 nd         1 QFN      -0.501800
     18 N2          -5.9080    -8.9050    -1.7690 na         1 QFN       0.211800
     19 C4          -7.2520    -8.5440    -0.0820 cc         1 QFN      -0.214300
     20 C5          -7.0860    -8.3650    -1.4200 cd         1 QFN      -0.224600
     21 C6          -8.2220    -7.6420    -2.0020 c          1 QFN       0.616600
     22 N7          -9.0450    -7.4250    -0.9240 n          1 QFN      -0.342000
     23 C8          -8.5440    -7.9480     0.3590 c5         1 QFN       0.257300
     24 O9          -8.4360    -7.2920    -3.1430 o          1 QFN      -0.512000
     25 C10        -10.2330    -6.6790    -1.0080 cd         1 QFN      -0.047400
     26 N14        -12.5890    -6.5730    -0.8580 n          1 QFN      -0.263000
     27 CL          -8.1060    -3.6010     4.4870 cl         1 QFN      -0.199000
     28 H1         -11.5280    -8.3470    -0.6790 h4         1 QFN       0.203000
     29 H2          -9.2510    -4.7870    -1.3600 ha         1 QFN       0.194000
     30 H3          -7.0070    -5.6960     0.2760 ha         1 QFN       0.120000
     31 H4          -9.6420    -5.9990     4.4470 ha         1 QFN       0.132000
     32 H5          -6.8380    -3.9160     1.9580 ha         1 QFN       0.132000
     33 H6          -9.8170    -7.7760     2.7510 ha         1 QFN       0.120000
     34 H7         -13.6760    -8.3170    -0.5280 h1         1 QFN       0.055033
     35 H8         -14.3620    -6.8740     0.2310 h1         1 QFN       0.055033
     36 H9         -14.5120    -7.1120    -1.5160 h1         1 QFN       0.055033
     37 H10        -11.7660    -2.5410    -0.6270 hc         1 QFN       0.047700
     38 H11        -10.3650    -2.7030    -1.6850 hc         1 QFN       0.047700
     39 H12        -11.9980    -2.8100    -2.3440 hc         1 QFN       0.047700
     40 H13         -4.7290   -10.0880     1.7360 hc         1 QFN       0.052033
     41 H14         -5.7760    -8.8420     2.4230 hc         1 QFN       0.052033
     42 H15         -6.4230   -10.4380     2.0810 hc         1 QFN       0.052033
     43 H16         -5.6230    -9.9740    -3.5660 h1         1 QFN       0.106700
     44 H17         -5.4920    -6.8780    -3.4940 hc         1 QFN       0.087950
     45 H18         -5.3850    -7.9300    -4.9740 hc         1 QFN       0.087950
     46 H19         -3.3350    -9.0680    -3.9750 hc         1 QFN       0.087950
     47 H20         -3.4850    -8.0000    -2.5080 hc         1 QFN       0.087950
     48 H21         -9.2290    -8.7200     0.7260 h1         1 QFN       0.070700
     49 O24        -13.7100    -4.6140    -1.0640 o          1 QFN      -0.557000
     50 C23        -13.8610    -7.2550    -0.6560 c3         1 QFN       0.077300
@<TRIPOS>BOND
     1     1    13 1   
     2     1    17 2   
     3     1    19 1   
     4     2    25 2   
     5     2    26 1   
     6     2    28 1   
     7     3     4 1   
     8     3    26 1   
     9     3    49 2   
    10     4     5 2   
    11     4    12 1   
    12     5    25 1   
    13     5    29 1   
    14     6     7 ar  
    15     6    11 ar  
    16     6    23 1   
    17     7    10 ar  
    18     7    30 1   
    19     8     9 ar  
    20     8    10 ar  
    21     8    27 1   
    22     9    11 ar  
    23     9    31 1   
    24    10    32 1   
    25    11    33 1   
    26    12    37 1   
    27    12    38 1   
    28    12    39 1   
    29    13    40 1   
    30    13    41 1   
    31    13    42 1   
    32    14    15 1   
    33    14    16 1   
    34    14    18 1   
    35    14    43 1   
    36    15    16 1   
    37    15    44 1   
    38    15    45 1   
    39    16    46 1   
    40    16    47 1   
    41    17    18 1   
    42    18    20 1   
    43    19    20 2   
    44    19    23 1   
    45    20    21 1   
    46    21    22 1   
    47    21    24 2   
    48    22    23 1   
    49    22    25 1   
    50    23    48 1   
    51    26    50 1   
    52    34    50 1   
    53    35    50 1   
    54    36    50 1   
@<TRIPOS>SUBSTRUCTURE
     1 QFN         1 TEMP              0 ****  ****    0 ROOT
