@<TRIPOS>MOLECULE
QFN
   50    54     1     0     0
SMALL
No Charge or Current Charge


@<TRIPOS>ATOM
      1 C3          -6.3660    -9.3700     0.2400 cc         1 QFN       0.291300
      2 C11        -11.3180    -6.8060    -0.2430 cc         1 QFN      -0.035400
      3 C12        -12.7900    -5.0810    -1.1770 c          1 QFN       0.546200
      4 C13        -11.6850    -4.7910    -2.1290 cc         1 QFN      -0.195400
      5 C15        -10.4920    -5.4920    -2.1060 cd         1 QFN      -0.091000
      6 C16         -8.4340    -7.1830     1.3170 ca         1 QFN      -0.097300
      7 C17         -7.6570    -6.0070     1.1960 ca         1 QFN      -0.080500
      8 C18         -7.9650    -5.5290     3.5610 ca         1 QFN       0.128000
      9 C19         -8.7360    -6.6940     3.6950 ca         1 QFN      -0.105500
     10 C20         -7.4250    -5.1850     2.3130 ca         1 QFN      -0.105500
     11 C21         -8.9690    -7.5160     2.5790 ca         1 QFN      -0.080500
     12 C25        -11.9600    -3.6730    -3.1120 c3         1 QFN      -0.031900
     13 C26         -6.4350   -10.0010     1.5990 c3         1 QFN      -0.120400
     14 C27         -5.0140    -8.4960    -2.9460 cx         1 QFN       0.014300
     15 C28         -4.6090    -7.1440    -3.4910 cx         1 QFN      -0.116900
     16 C29         -3.5530    -8.1120    -3.0170 cx         1 QFN      -0.116900
     17 N1          -5.3470    -9.4840    -0.6120 nd         1 QFN      -0.501800
     18 N2          -5.7760    -8.7190    -1.7140 na         1 QFN       0.211800
     19 C4          -7.3690    -8.5720    -0.3130 cc         1 QFN      -0.214300
     20 C5          -7.0270    -8.1630    -1.5070 cd         1 QFN      -0.224600
     21 C6          -8.0640    -7.3310    -2.1060 c          1 QFN       0.616600
     22 N7          -9.0830    -7.2650    -1.0880 n          1 QFN      -0.342000
     23 C8          -8.7060    -8.1010     0.1200 c5         1 QFN       0.257300
     24 O9          -8.0550    -6.8320    -3.2220 o          1 QFN      -0.512000
     25 C10        -10.2950    -6.5490    -1.1390 cd         1 QFN      -0.047400
     26 N14        -12.5270    -6.1090    -0.2490 n          1 QFN      -0.263000
     27 Cl          -7.6740    -4.5010     4.9580 cl         1 QFN      -0.199000
     28 H1         -11.2880    -7.5610     0.5330 h4         1 QFN       0.203000
     29 H2          -9.7190    -5.2100    -2.8090 ha         1 QFN       0.194000
     30 H3          -7.2300    -5.7270     0.2360 ha         1 QFN       0.120000
     31 H4          -9.1520    -6.9590     4.6640 ha         1 QFN       0.132000
     32 H5          -6.8280    -4.2840     2.2100 ha         1 QFN       0.132000
     33 H6          -9.5660    -8.4170     2.6970 ha         1 QFN       0.120000
     34 H7         -13.2580    -7.2410     1.4090 h1         1 QFN       0.055033
     35 H8         -13.8180    -5.5500     1.3370 h1         1 QFN       0.055033
     36 H9         -14.4900    -6.7650     0.2110 h1         1 QFN       0.055033
     37 H10        -12.1530    -2.7290    -2.5890 hc         1 QFN       0.047700
     38 H11        -11.1100    -3.5100    -3.7850 hc         1 QFN       0.047700
     39 H12        -12.8340    -3.9020    -3.7340 hc         1 QFN       0.047700
     40 H13         -5.6530   -10.7580     1.7240 hc         1 QFN       0.052033
     41 H14         -6.3040    -9.2440     2.3810 hc         1 QFN       0.052033
     42 H15         -7.4050   -10.4870     1.7540 hc         1 QFN       0.052033
     43 H16         -5.3730    -9.2360    -3.6600 h1         1 QFN       0.106700
     44 H17         -4.8100    -6.2700    -2.8750 hc         1 QFN       0.087950
     45 H18         -4.7130    -6.9820    -4.5610 hc         1 QFN       0.087950
     46 H19         -2.9390    -8.6050    -3.7660 hc         1 QFN       0.087950
     47 H20         -3.0430    -7.8890    -2.0830 hc         1 QFN       0.087950
     48 H21         -9.4000    -8.9290     0.3230 h1         1 QFN       0.070700
     49 O24        -13.8560    -4.4740    -1.1820 o          1 QFN      -0.557000
     50 C23        -13.5840    -6.4380     0.7370 c3         1 QFN       0.077300
@<TRIPOS>BOND
     1     1    13 1   
     2     1    17 2   
     3     1    19 1   
     4     2    25 2   
     5     2    26 1   
     6     2    28 1   
     7     3     4 1   
     8     3    26 1   
     9     3    49 2   
    10     4     5 2   
    11     4    12 1   
    12     5    25 1   
    13     5    29 1   
    14     6     7 ar  
    15     6    11 ar  
    16     6    23 1   
    17     7    10 ar  
    18     7    30 1   
    19     8     9 ar  
    20     8    10 ar  
    21     8    27 1   
    22     9    11 ar  
    23     9    31 1   
    24    10    32 1   
    25    11    33 1   
    26    12    37 1   
    27    12    38 1   
    28    12    39 1   
    29    13    40 1   
    30    13    41 1   
    31    13    42 1   
    32    14    15 1   
    33    14    16 1   
    34    14    18 1   
    35    14    43 1   
    36    15    16 1   
    37    15    44 1   
    38    15    45 1   
    39    16    46 1   
    40    16    47 1   
    41    17    18 1   
    42    18    20 1   
    43    19    20 2   
    44    19    23 1   
    45    20    21 1   
    46    21    22 1   
    47    21    24 2   
    48    22    23 1   
    49    22    25 1   
    50    23    48 1   
    51    26    50 1   
    52    34    50 1   
    53    35    50 1   
    54    36    50 1   
@<TRIPOS>SUBSTRUCTURE
     1 QFN         1 TEMP              0 ****  ****    0 ROOT
