@<TRIPOS>MOLECULE
QFO
   72    76     1     0     0
SMALL
No Charge or Current Charge


@<TRIPOS>ATOM
      1 C1         -12.0270    18.8250     2.9050 c3         1 QFO      -0.089100
      2 C2         -12.5340    18.6950     1.4510 c3         1 QFO      -0.005400
      3 C3         -13.5140    19.8420     1.1070 c3         1 QFO      -0.089100
      4 C4         -13.1010    17.2830     1.1910 ca         1 QFO      -0.176300
      5 C5         -14.4930    17.0450     1.2230 ca         1 QFO       0.396900
      6 N1         -15.0590    15.8430     0.9950 nb         1 QFO      -0.765000
      7 C6         -14.2600    14.8030     0.7250 ca         1 QFO       0.646900
      8 N2         -14.9230    13.6310     0.4640 nn         1 QFO      -0.776300
      9 C7         -14.9490    12.8590    -0.8100 cy         1 QFO       0.215300
     10 C8         -16.0930    12.0140    -0.1480 cy         1 QFO      -0.087700
     11 C9         -17.2750    11.4870    -1.0110 c3         1 QFO      -0.299400
     12 S1         -16.8390    10.0110    -1.9720 s6         1 QFO       1.104000
     13 O1         -18.0370     9.6010    -2.7160 o          1 QFO      -0.519500
     14 O2         -16.1860     9.0490    -1.0770 o          1 QFO      -0.519500
     15 C10        -15.6260    10.5580    -3.1730 c3         1 QFO      -0.342100
     16 C11        -16.3490    13.2850     0.7290 cy         1 QFO       0.215300
     17 C12        -12.8610    14.9140     0.7050 ca         1 QFO      -0.209000
     18 C13        -12.0340    13.7990     0.4890 ca         1 QFO       0.415900
     19 N3         -10.6850    13.8700     0.4710 nb         1 QFO      -0.741000
     20 C14        -10.1320    15.0600     0.6770 ca         1 QFO       0.609900
     21 N4          -8.7730    14.9330     0.6380 nu         1 QFO      -0.904800
     22 C15         -7.6810    15.7640     0.8100 ca         1 QFO       0.427900
     23 N5          -7.8790    17.0670     1.0350 nb         1 QFO      -0.305000
     24 C16         -6.7890    17.8390     1.2060 ca         1 QFO       0.433900
     25 N6          -5.5110    17.4070     1.1650 nb         1 QFO      -0.273000
     26 C17         -5.3180    16.0960     0.9350 ca         1 QFO       0.175900
     27 C18         -6.3970    15.2230     0.7480 ca         1 QFO      -0.334000
     28 N7          -7.0050    19.2250     1.4430 nh         1 QFO      -0.775300
     29 C19         -6.0020    20.0470     2.1920 c6         1 QFO       0.231800
     30 C20         -6.0040    21.5180     1.7200 c6         1 QFO      -0.135400
     31 C21         -7.4110    22.1460     1.8370 c6         1 QFO       0.152300
     32 O3          -7.3560    23.5220     1.4170 oh         1 QFO      -0.648000
     33 C22         -8.4530    21.3130     1.0170 c6         1 QFO       0.184000
     34 C23         -9.8970    21.8730     1.1410 c3         1 QFO      -0.108100
     35 F1          -8.1240    21.3910    -0.3590 f          1 QFO      -0.258000
     36 C24         -8.3960    19.8090     1.4360 c6         1 QFO       0.204800
     37 C25        -10.8610    16.2320     0.9160 ca         1 QFO      -0.196000
     38 C26        -12.2660    16.1670     0.9370 ca         1 QFO       0.078000
     39 H1         -11.5750    19.8100     3.0730 hc         1 QFO       0.036533
     40 H2         -12.8540    18.7030     3.6150 hc         1 QFO       0.036533
     41 H3         -11.2720    18.0640     3.1310 hc         1 QFO       0.036533
     42 H4         -11.6770    18.8550     0.7870 hc         1 QFO       0.050700
     43 H5         -13.0040    20.8110     1.1600 hc         1 QFO       0.036533
     44 H6         -13.9070    19.7250     0.0890 hc         1 QFO       0.036533
     45 H7         -14.3570    19.8750     1.8070 hc         1 QFO       0.036533
     46 H8         -15.1980    17.8440     1.4400 h4         1 QFO       0.018100
     47 H9         -14.0520    12.2770    -1.0500 h1         1 QFO       0.064450
     48 H10        -15.2720    13.4360    -1.6870 h1         1 QFO       0.064450
     49 H11        -15.7030    11.1880     0.4600 hc         1 QFO       0.090700
     50 H12        -17.6140    12.2510    -1.7200 h1         1 QFO       0.109200
     51 H13        -18.1050    11.1900    -0.3600 h1         1 QFO       0.109200
     52 H14        -14.6920    10.7660    -2.6440 h1         1 QFO       0.104367
     53 H15        -15.4890     9.7420    -3.8900 h1         1 QFO       0.104367
     54 H16        -16.0200    11.4530    -3.6660 h1         1 QFO       0.104367
     55 H17        -17.0810    13.9800     0.2990 h1         1 QFO       0.064450
     56 H18        -16.6050    13.0620     1.7720 h1         1 QFO       0.064450
     57 H19        -12.4430    12.8020     0.3420 h4         1 QFO       0.015100
     58 H20         -8.5330    13.9660     0.4600 hn         1 QFO       0.514000
     59 H21         -4.2870    15.7450     0.9020 h4         1 QFO       0.021100
     60 H22         -6.2310    14.1650     0.5650 ha         1 QFO       0.134000
     61 H23         -4.9800    19.6610     2.0640 h1         1 QFO       0.067200
     62 H24         -6.2210    20.0110     3.2700 h1         1 QFO       0.067200
     63 H25         -5.6520    21.5670     0.6810 hc         1 QFO       0.066200
     64 H26         -5.2840    22.0880     2.3220 hc         1 QFO       0.066200
     65 H27         -7.7100    22.1060     2.8950 h1         1 QFO       0.030700
     66 H28         -6.7220    23.9780     2.0130 ho         1 QFO       0.444000
     67 H29        -10.2410    21.8610     2.1820 hc         1 QFO       0.054367
     68 H30         -9.9580    22.9080     0.7830 hc         1 QFO       0.054367
     69 H31        -10.6030    21.2800     0.5480 hc         1 QFO       0.054367
     70 H32         -8.8430    19.7030     2.4360 h1         1 QFO       0.073700
     71 H33         -9.0480    19.2640     0.7390 h1         1 QFO       0.073700
     72 H34        -10.3450    17.1610     1.0930 ha         1 QFO       0.160000
@<TRIPOS>BOND
     1     1     2 1   
     2     1    39 1   
     3     1    40 1   
     4     1    41 1   
     5     2     3 1   
     6     2     4 1   
     7     2    42 1   
     8     3    43 1   
     9     3    44 1   
    10     3    45 1   
    11     4     5 ar  
    12     4    38 ar  
    13     5     6 ar  
    14     5    46 1   
    15     6     7 ar  
    16     7     8 1   
    17     7    17 ar  
    18     8     9 1   
    19     8    16 1   
    20     9    10 1   
    21     9    47 1   
    22     9    48 1   
    23    10    11 1   
    24    10    16 1   
    25    10    49 1   
    26    11    12 1   
    27    11    50 1   
    28    11    51 1   
    29    12    13 2   
    30    12    14 2   
    31    12    15 1   
    32    15    52 1   
    33    15    53 1   
    34    15    54 1   
    35    16    55 1   
    36    16    56 1   
    37    17    18 ar  
    38    17    38 ar  
    39    18    19 ar  
    40    18    57 1   
    41    19    20 ar  
    42    20    21 1   
    43    20    37 ar  
    44    21    22 1   
    45    21    58 1   
    46    22    23 ar  
    47    22    27 ar  
    48    23    24 ar  
    49    24    25 ar  
    50    24    28 1   
    51    25    26 ar  
    52    26    27 ar  
    53    26    59 1   
    54    27    60 1   
    55    28    29 1   
    56    28    36 1   
    57    29    30 1   
    58    29    61 1   
    59    29    62 1   
    60    30    31 1   
    61    30    63 1   
    62    30    64 1   
    63    31    32 1   
    64    31    33 1   
    65    31    65 1   
    66    32    66 1   
    67    33    34 1   
    68    33    35 1   
    69    33    36 1   
    70    34    67 1   
    71    34    68 1   
    72    34    69 1   
    73    36    70 1   
    74    36    71 1   
    75    37    38 ar  
    76    37    72 1   
@<TRIPOS>SUBSTRUCTURE
     1 QFO         1 TEMP              0 ****  ****    0 ROOT
