@<TRIPOS>MOLECULE
QFO
   72    76     1     0     0
SMALL
abcg2


@<TRIPOS>ATOM
      1 C1         -11.8150    18.4020     3.5190 c3         1 QFO      -0.089100
      2 C2         -12.4470    18.4720     2.1200 c3         1 QFO      -0.005400
      3 C3         -13.4290    19.6420     2.0430 c3         1 QFO      -0.089100
      4 C4         -13.0490    17.1390     1.7210 ca         1 QFO      -0.176300
      5 C5         -14.3960    16.8870     1.7970 ca         1 QFO       0.396900
      6 N1         -15.0100    15.7300     1.4600 nb         1 QFO      -0.765000
      7 C6         -14.2750    14.7150     1.0290 ca         1 QFO       0.646900
      8 N2         -14.9620    13.5850     0.7040 nn         1 QFO      -0.776300
      9 C7         -14.6950    12.5330    -0.2940 cy         1 QFO       0.215300
     10 C8         -16.2220    12.3030    -0.4160 cy         1 QFO      -0.087700
     11 C9         -16.8480    12.4040    -1.7920 c3         1 QFO      -0.299400
     12 S1         -16.7980    10.8910    -2.7540 s6         1 QFO       1.104000
     13 O1         -17.3180    11.1930    -4.0780 o          1 QFO      -0.519500
     14 O2         -17.4590     9.8390    -1.9980 o          1 QFO      -0.519500
     15 C10        -15.0790    10.4740    -2.9070 c3         1 QFO      -0.342100
     16 C11        -16.4140    13.5520     0.4820 cy         1 QFO       0.215300
     17 C12        -12.8410    14.8150     0.9470 ca         1 QFO      -0.209000
     18 C13        -11.9900    13.7530     0.5860 ca         1 QFO       0.415900
     19 N3         -10.6820    13.8440     0.5070 nb         1 QFO      -0.741000
     20 C14        -10.1000    15.0400     0.7840 ca         1 QFO       0.609900
     21 N4          -8.7210    14.9780     0.6420 nu         1 QFO      -0.904800
     22 C15         -7.7200    15.8930     0.8500 ca         1 QFO       0.427900
     23 N5          -8.0040    17.1400     1.2080 nb         1 QFO      -0.305000
     24 C16         -6.9650    17.9800     1.4100 ca         1 QFO       0.433900
     25 N6          -5.6680    17.6540     1.2730 nb         1 QFO      -0.273000
     26 C17         -5.4140    16.3930     0.9060 ca         1 QFO       0.175900
     27 C18         -6.3920    15.4550     0.6740 ca         1 QFO      -0.334000
     28 N7          -7.2550    19.2530     1.8020 nh         1 QFO      -0.775300
     29 C19         -6.2210    20.2490     2.0530 c6         1 QFO       0.231800
     30 C20         -6.2890    21.3600     1.0070 c6         1 QFO      -0.135400
     31 C21         -7.6850    21.9740     0.9690 c6         1 QFO       0.152300
     32 O3          -7.8140    22.9560    -0.0570 oh         1 QFO      -0.648000
     33 C22         -8.7580    20.9070     0.7610 c6         1 QFO       0.184000
     34 C23        -10.1660    21.4620     0.7510 c3         1 QFO      -0.108100
     35 F1          -8.5300    20.3110    -0.5150 f          1 QFO      -0.258000
     36 C24         -8.6010    19.7880     1.7940 c6         1 QFO       0.204800
     37 C25        -10.8240    16.1490     1.1720 ca         1 QFO      -0.196000
     38 C26        -12.2270    16.0580     1.2800 ca         1 QFO       0.078000
     39 H1         -11.3090    19.3400     3.7580 hc         1 QFO       0.036533
     40 H2         -12.5880    18.2280     4.2710 hc         1 QFO       0.036533
     41 H3         -11.0850    17.5950     3.5910 hc         1 QFO       0.036533
     42 H4         -11.6480    18.6840     1.4050 hc         1 QFO       0.050700
     43 H5         -12.8990    20.5780     2.2270 hc         1 QFO       0.036533
     44 H6         -13.9010    19.7060     1.0600 hc         1 QFO       0.036533
     45 H7         -14.2160    19.5580     2.7950 hc         1 QFO       0.036533
     46 H8         -15.0690    17.6630     2.1430 h4         1 QFO       0.018100
     47 H9         -14.1240    11.6860     0.0840 h1         1 QFO       0.064450
     48 H10        -14.2240    12.9170    -1.2030 h1         1 QFO       0.064450
     49 H11        -16.5420    11.3910     0.0830 hc         1 QFO       0.090700
     50 H12        -16.3810    13.1780    -2.4040 h1         1 QFO       0.109200
     51 H13        -17.9190    12.6110    -1.7230 h1         1 QFO       0.109200
     52 H14        -14.6780    10.2410    -1.9230 h1         1 QFO       0.104367
     53 H15        -15.0410     9.5940    -3.5480 h1         1 QFO       0.104367
     54 H16        -14.5520    11.3080    -3.3670 h1         1 QFO       0.104367
     55 H17        -16.7760    14.4330    -0.0540 h1         1 QFO       0.064450
     56 H18        -17.0080    13.4110     1.3840 h1         1 QFO       0.064450
     57 H19        -12.3960    12.7750     0.3700 h4         1 QFO       0.015100
     58 H20         -8.4090    14.0570     0.3720 hn         1 QFO       0.514000
     59 H21         -4.3670    16.1290     0.7940 h4         1 QFO       0.021100
     60 H22         -6.1610    14.4410     0.3820 ha         1 QFO       0.134000
     61 H23         -5.2520    19.7640     2.0460 h1         1 QFO       0.067200
     62 H24         -6.3910    20.6700     3.0510 h1         1 QFO       0.067200
     63 H25         -6.0440    20.9580     0.0210 hc         1 QFO       0.066200
     64 H26         -5.5590    22.1360     1.2480 hc         1 QFO       0.066200
     65 H27         -7.8960    22.4280     1.9460 h1         1 QFO       0.030700
     66 H28         -7.1650    23.6510     0.1120 ho         1 QFO       0.444000
     67 H29        -10.4060    21.8870     1.7270 hc         1 QFO       0.054367
     68 H30        -10.2600    22.2430    -0.0010 hc         1 QFO       0.054367
     69 H31        -10.8790    20.6680     0.5340 hc         1 QFO       0.054367
     70 H32         -8.8460    20.1890     2.7820 h1         1 QFO       0.073700
     71 H33         -9.3000    18.9950     1.5630 h1         1 QFO       0.073700
     72 H34        -10.3040    17.0600     1.4000 ha         1 QFO       0.160000
@<TRIPOS>BOND
     1     1     2 1   
     2     1    39 1   
     3     1    40 1   
     4     1    41 1   
     5     2     3 1   
     6     2     4 1   
     7     2    42 1   
     8     3    43 1   
     9     3    44 1   
    10     3    45 1   
    11     4     5 ar  
    12     4    38 ar  
    13     5     6 ar  
    14     5    46 1   
    15     6     7 ar  
    16     7     8 1   
    17     7    17 ar  
    18     8     9 1   
    19     8    16 1   
    20     9    10 1   
    21     9    47 1   
    22     9    48 1   
    23    10    11 1   
    24    10    16 1   
    25    10    49 1   
    26    11    12 1   
    27    11    50 1   
    28    11    51 1   
    29    12    13 2   
    30    12    14 2   
    31    12    15 1   
    32    15    52 1   
    33    15    53 1   
    34    15    54 1   
    35    16    55 1   
    36    16    56 1   
    37    17    18 ar  
    38    17    38 ar  
    39    18    19 ar  
    40    18    57 1   
    41    19    20 ar  
    42    20    21 1   
    43    20    37 ar  
    44    21    22 1   
    45    21    58 1   
    46    22    23 ar  
    47    22    27 ar  
    48    23    24 ar  
    49    24    25 ar  
    50    24    28 1   
    51    25    26 ar  
    52    26    27 ar  
    53    26    59 1   
    54    27    60 1   
    55    28    29 1   
    56    28    36 1   
    57    29    30 1   
    58    29    61 1   
    59    29    62 1   
    60    30    31 1   
    61    30    63 1   
    62    30    64 1   
    63    31    32 1   
    64    31    33 1   
    65    31    65 1   
    66    32    66 1   
    67    33    34 1   
    68    33    35 1   
    69    33    36 1   
    70    34    67 1   
    71    34    68 1   
    72    34    69 1   
    73    36    70 1   
    74    36    71 1   
    75    37    38 ar  
    76    37    72 1   
@<TRIPOS>SUBSTRUCTURE
     1 QFO         1 TEMP              0 ****  ****    0 ROOT
