@<TRIPOS>MOLECULE
QFQ
   62    66     1     0     0
SMALL
abcg2


@<TRIPOS>ATOM
      1 C1           4.9100     3.4730    13.1890 cc         1 QFQ       0.245300
      2 C2           3.5240     3.3330    12.8610 cc         1 QFQ       0.171000
      3 C3           3.1790     2.0920    13.3240 cd         1 QFQ      -0.183000
      4 N6          -2.9180    -1.5120    14.2840 na         1 QFQ       0.100600
      5 C7           3.4760    -1.5210    15.3170 ca         1 QFQ       0.408900
      6 C8           1.0360    -2.0630    15.2070 ca         1 QFQ       0.280000
      7 C9           0.0860    -2.7410    16.0150 ca         1 QFQ      -0.117000
      8 C10         -1.2650    -2.6430    15.8010 ca         1 QFQ      -0.100000
      9 C11         -1.6790    -1.8250    14.7460 ca         1 QFQ      -0.079200
     10 C12         -0.7600    -1.1500    13.9310 ca         1 QFQ      -0.156900
     11 C13          0.6180    -1.2720    14.1540 ca         1 QFQ      -0.048000
     12 C14         -1.5840    -0.4620    12.9990 cc         1 QFQ       0.289900
     13 C16         -1.1520     0.4070    11.8880 c          1 QFQ       0.554800
     14 C19          1.0080     5.0480    10.7440 c6         1 QFQ      -0.084400
     15 C20          0.8140     6.4210    11.3820 c6         1 QFQ      -0.111400
     16 C21         -0.1300     6.3190    12.5780 c6         1 QFQ       0.151800
     17 C22          0.4300     4.0070    12.9310 c6         1 QFQ       0.153800
     18 O            0.0410     0.5910    11.6640 o          1 QFQ      -0.614100
     19 N7          -2.1310     0.9590    11.1590 ns         1 QFQ      -0.495900
     20 C17         -1.8660     1.8090    10.0250 c3         1 QFQ       0.097300
     21 N5          -2.8560    -0.7050    13.2420 nd         1 QFQ      -0.513100
     22 N4           2.3740    -2.2880    15.5290 nu         1 QFQ      -0.931900
     23 N2           4.6070    -2.0300    15.8160 nb         1 QFQ      -0.259000
     24 C6           5.6940    -1.2930    15.6460 ca         1 QFQ       0.155900
     25 C5           5.7020    -0.0690    15.0070 ca         1 QFQ      -0.268000
     26 N3           3.3610    -0.3650    14.6740 nb         1 QFQ      -0.274000
     27 C4           4.4620     0.3550    14.5330 ca         1 QFQ       0.288500
     28 N            4.3190     1.5670    13.8860 na         1 QFQ       0.099300
     29 N1           5.3580     2.4030    13.7940 nd         1 QFQ      -0.500800
     30 C            5.7680     4.6530    12.9100 c3         1 QFQ      -0.120400
     31 N8           2.7710     4.3050    12.2440 nu         1 QFQ      -0.920200
     32 C18          1.4320     3.9980    11.7690 c6         1 QFQ       0.170500
     33 N9           0.2570     5.3080    13.5490 n7         1 QFQ      -0.843400
     34 H1           2.2530     1.5450    13.3030 h4         1 QFQ       0.191000
     35 H2           0.4430    -3.3570    16.8320 ha         1 QFQ       0.115000
     36 H3          -1.9660    -3.1740    16.4310 ha         1 QFQ       0.122000
     37 H4           1.3220    -0.7670    13.5170 ha         1 QFQ       0.166000
     38 H5          -4.9790    -1.4580    14.2880 h1         1 QFQ       0.057700
     39 H6          -4.2920    -3.0630    14.5960 h1         1 QFQ       0.057700
     40 H7          -4.2510    -1.8190    15.8600 h1         1 QFQ       0.057700
     41 H8           0.0650     4.7210    10.2970 hc         1 QFQ       0.042700
     42 H9           1.7350     5.0940     9.9270 hc         1 QFQ       0.042700
     43 H10          1.7740     6.8340    11.7050 hc         1 QFQ       0.042700
     44 H11          0.4110     7.1210    10.6460 hc         1 QFQ       0.042700
     45 H12         -0.2090     7.2820    13.0860 h1         1 QFQ       0.046700
     46 H13         -1.1350     6.0700    12.2180 h1         1 QFQ       0.046700
     47 H14         -0.5390     3.6740    12.5430 h1         1 QFQ       0.058200
     48 H15          0.7150     3.2880    13.7020 h1         1 QFQ       0.058200
     49 H16         -3.0870     0.7550    11.4020 hn         1 QFQ       0.334500
     50 H17         -2.8150     2.0950     9.5810 h1         1 QFQ       0.038700
     51 H18         -1.3370     2.7180    10.3150 h1         1 QFQ       0.038700
     52 H19         -1.2730     1.2980     9.2660 h1         1 QFQ       0.038700
     53 H20          2.5610    -3.0960    16.1040 hn         1 QFQ       0.511000
     54 H21          6.6170    -1.7000    16.0440 h4         1 QFQ       0.024100
     55 H22          6.6040     0.5080    14.8880 ha         1 QFQ       0.161000
     56 H23          6.7770     4.4990    13.2870 hc         1 QFQ       0.048367
     57 H24          5.8340     4.8510    11.8380 hc         1 QFQ       0.048367
     58 H25          5.3600     5.5520    13.3760 hc         1 QFQ       0.048367
     59 H26          3.3070     4.8720    11.6040 hn         1 QFQ       0.456000
     60 H27          1.4070     3.0060    11.2950 h1         1 QFQ       0.061700
     61 H28          1.1340     5.5810    13.9780 hn         1 QFQ       0.418000
     62 C15         -4.1800    -1.9960    14.7880 c3         1 QFQ       0.076900
@<TRIPOS>BOND
     1     1     2 1   
     2     1    29 2   
     3     1    30 1   
     4     2     3 2   
     5     2    31 1   
     6     3    28 1   
     7     3    34 1   
     8     4     9 1   
     9     4    21 1   
    10     4    62 1   
    11     5    22 1   
    12     5    23 ar  
    13     5    26 ar  
    14     6     7 ar  
    15     6    11 ar  
    16     6    22 1   
    17     7     8 ar  
    18     7    35 1   
    19     8     9 ar  
    20     8    36 1   
    21     9    10 ar  
    22    10    11 ar  
    23    10    12 1   
    24    11    37 1   
    25    12    13 1   
    26    12    21 2   
    27    13    18 2   
    28    13    19 1   
    29    14    15 1   
    30    14    32 1   
    31    14    41 1   
    32    14    42 1   
    33    15    16 1   
    34    15    43 1   
    35    15    44 1   
    36    16    33 1   
    37    16    45 1   
    38    16    46 1   
    39    17    32 1   
    40    17    33 1   
    41    17    47 1   
    42    17    48 1   
    43    19    20 1   
    44    19    49 1   
    45    20    50 1   
    46    20    51 1   
    47    20    52 1   
    48    22    53 1   
    49    23    24 ar  
    50    24    25 ar  
    51    24    54 1   
    52    25    27 ar  
    53    25    55 1   
    54    26    27 ar  
    55    27    28 1   
    56    28    29 1   
    57    30    56 1   
    58    30    57 1   
    59    30    58 1   
    60    31    32 1   
    61    31    59 1   
    62    32    60 1   
    63    33    61 1   
    64    38    62 1   
    65    39    62 1   
    66    40    62 1   
@<TRIPOS>SUBSTRUCTURE
     1 QFQ         1 TEMP              0 ****  ****    0 ROOT
