@<TRIPOS>MOLECULE
QFQ
   62    66     1     0     0
SMALL
No Charge or Current Charge


@<TRIPOS>ATOM
      1 C1           4.8830     3.6580    13.5450 cc         1 QFQ       0.245300
      2 C2           3.6380     3.3420    12.9230 cc         1 QFQ       0.171000
      3 C3           3.3890     2.0340    13.1940 cd         1 QFQ      -0.183000
      4 N6          -3.0040    -1.3890    14.4450 na         1 QFQ       0.100600
      5 C7           3.5150    -1.6240    15.2000 ca         1 QFQ       0.408900
      6 C8           0.9930    -2.1140    15.2670 ca         1 QFQ       0.280000
      7 C9           0.0550    -2.7400    16.1270 ca         1 QFQ      -0.117000
      8 C10         -1.3340    -2.5580    15.9440 ca         1 QFQ      -0.100000
      9 C11         -1.7460    -1.7420    14.8830 ca         1 QFQ      -0.079200
     10 C12         -0.8610    -1.1440    14.0420 ca         1 QFQ      -0.156900
     11 C13          0.5250    -1.3150    14.1940 ca         1 QFQ      -0.048000
     12 C14         -1.6650    -0.4110    13.0760 cc         1 QFQ       0.289900
     13 C16         -1.0940     0.4140    11.9500 c          1 QFQ       0.554800
     14 C19          1.1450     4.9710    10.5720 c6         1 QFQ      -0.084400
     15 C20          0.8090     6.3430    11.2210 c6         1 QFQ      -0.111400
     16 C21         -0.2430     6.1980    12.3510 c6         1 QFQ       0.151800
     17 C22          0.4300     3.8620    12.7530 c6         1 QFQ       0.153800
     18 O            0.1010     0.5780    11.7220 o          1 QFQ      -0.614100
     19 N7          -2.0570     1.0020    11.1500 ns         1 QFQ      -0.495900
     20 C17         -1.7760     1.8240     9.9720 c3         1 QFQ       0.097300
     21 N5          -2.9860    -0.5660    13.3240 nd         1 QFQ      -0.513100
     22 N4           2.3610    -2.3370    15.4910 nu         1 QFQ      -0.931900
     23 N2           4.6630    -2.2780    15.4250 nb         1 QFQ      -0.259000
     24 C6           5.7930    -1.6030    15.1480 ca         1 QFQ       0.155900
     25 C5           5.7580    -0.2900    14.6550 ca         1 QFQ      -0.268000
     26 N3           3.3830    -0.3680    14.7460 nb         1 QFQ      -0.274000
     27 C4           4.5040     0.3300    14.4550 ca         1 QFQ       0.288500
     28 N            4.4920     1.6510    13.9650 na         1 QFQ       0.099300
     29 N1           5.4320     2.6470    14.1960 nd         1 QFQ      -0.500800
     30 C            5.5130     5.0240    13.4780 c3         1 QFQ      -0.120400
     31 N8           2.8610     4.2370    12.1990 nu         1 QFQ      -0.920200
     32 C18          1.5280     3.9100    11.6370 c6         1 QFQ       0.170500
     33 N9           0.1900     5.2020    13.3600 n7         1 QFQ      -0.843400
     34 H1           2.5670     1.3870    12.9200 h4         1 QFQ       0.191000
     35 H2           0.4040    -3.3640    16.9450 ha         1 QFQ       0.115000
     36 H3          -2.0530    -3.0370    16.6060 ha         1 QFQ       0.122000
     37 H4           1.2180    -0.8620    13.4940 ha         1 QFQ       0.166000
     38 H5          -5.1130    -1.4100    14.5590 h1         1 QFQ       0.057700
     39 H6          -4.3080    -2.9280    15.0520 h1         1 QFQ       0.057700
     40 H7          -4.2640    -1.5000    16.1300 h1         1 QFQ       0.057700
     41 H8           0.2680     4.6160    10.0130 hc         1 QFQ       0.042700
     42 H9           1.9510     5.0840     9.8340 hc         1 QFQ       0.042700
     43 H10          1.7220     6.8010    11.6260 hc         1 QFQ       0.042700
     44 H11          0.4330     7.0340    10.4550 hc         1 QFQ       0.042700
     45 H12         -0.3970     7.1730    12.8360 h1         1 QFQ       0.046700
     46 H13         -1.2070     5.8880    11.9190 h1         1 QFQ       0.046700
     47 H14         -0.5090     3.4840    12.3220 h1         1 QFQ       0.058200
     48 H15          0.7330     3.1500    13.5350 h1         1 QFQ       0.058200
     49 H16         -3.0220     0.8170    11.4060 hn         1 QFQ       0.334500
     50 H17         -2.7170     2.0560     9.4560 h1         1 QFQ       0.038700
     51 H18         -1.2940     2.7600    10.2800 h1         1 QFQ       0.038700
     52 H19         -1.1130     1.2790     9.2890 h1         1 QFQ       0.038700
     53 H20          2.5580    -3.1710    16.0450 hn         1 QFQ       0.511000
     54 H21          6.7340    -2.1220    15.3220 h4         1 QFQ       0.024100
     55 H22          6.6840     0.2340    14.4350 ha         1 QFQ       0.161000
     56 H23          6.4660     5.0510    14.0200 hc         1 QFQ       0.048367
     57 H24          5.7100     5.3100    12.4380 hc         1 QFQ       0.048367
     58 H25          4.8530     5.7780    13.9210 hc         1 QFQ       0.048367
     59 H26          3.2320     5.1810    12.0810 hn         1 QFQ       0.456000
     60 H27          1.5680     2.9250    11.1460 h1         1 QFQ       0.061700
     61 H28          1.0940     5.5130    13.7360 hn         1 QFQ       0.418000
     62 C15         -4.2500    -1.8340    15.0860 c3         1 QFQ       0.076900
@<TRIPOS>BOND
     1     1     2 1   
     2     1    29 2   
     3     1    30 1   
     4     2     3 2   
     5     2    31 1   
     6     3    28 1   
     7     3    34 1   
     8     4     9 1   
     9     4    21 1   
    10     4    62 1   
    11     5    22 1   
    12     5    23 ar  
    13     5    26 ar  
    14     6     7 ar  
    15     6    11 ar  
    16     6    22 1   
    17     7     8 ar  
    18     7    35 1   
    19     8     9 ar  
    20     8    36 1   
    21     9    10 ar  
    22    10    11 ar  
    23    10    12 1   
    24    11    37 1   
    25    12    13 1   
    26    12    21 2   
    27    13    18 2   
    28    13    19 1   
    29    14    15 1   
    30    14    32 1   
    31    14    41 1   
    32    14    42 1   
    33    15    16 1   
    34    15    43 1   
    35    15    44 1   
    36    16    33 1   
    37    16    45 1   
    38    16    46 1   
    39    17    32 1   
    40    17    33 1   
    41    17    47 1   
    42    17    48 1   
    43    19    20 1   
    44    19    49 1   
    45    20    50 1   
    46    20    51 1   
    47    20    52 1   
    48    22    53 1   
    49    23    24 ar  
    50    24    25 ar  
    51    24    54 1   
    52    25    27 ar  
    53    25    55 1   
    54    26    27 ar  
    55    27    28 1   
    56    28    29 1   
    57    30    56 1   
    58    30    57 1   
    59    30    58 1   
    60    31    32 1   
    61    31    59 1   
    62    32    60 1   
    63    33    61 1   
    64    38    62 1   
    65    39    62 1   
    66    40    62 1   
@<TRIPOS>SUBSTRUCTURE
     1 QFQ         1 TEMP              0 ****  ****    0 ROOT
