@<TRIPOS>MOLECULE
QFR
   67    71     1     0     0
SMALL
No Charge or Current Charge


@<TRIPOS>ATOM
      1 C1          -8.0280    18.5190     0.3610 c5         1 QFR       0.075000
      2 N1          -7.5800    17.1760    -0.0850 n          1 QFR      -0.401800
      3 C2          -7.8110    16.9670    -1.5410 c5         1 QFR       0.085400
      4 C3          -7.9510    18.4330    -2.0430 c5         1 QFR      -0.086400
      5 C4          -8.7560    19.0930    -0.8970 c5         1 QFR       0.150300
      6 C5          -7.3110    16.1060     0.7970 c          1 QFR       0.623100
      7 C6          -6.9410    16.4190     2.2670 c3         1 QFR      -0.171000
      8 O1          -7.3850    14.9530     0.3940 o          1 QFR      -0.589100
      9 C7          -6.5960    16.3060    -2.2220 c2         1 QFR       0.521200
     10 N2          -6.8040    15.4330    -3.2710 nu         1 QFR      -0.908400
     11 C8          -5.4630    15.0760    -3.7360 c5         1 QFR       0.461500
     12 C9          -5.2520    15.5610    -5.1840 ca         1 QFR      -0.127300
     13 C10         -5.1500    16.9450    -5.4540 ca         1 QFR      -0.091000
     14 C11         -4.9680    17.4180    -6.7650 ca         1 QFR      -0.097500
     15 C12         -4.8820    16.5190    -7.8420 ca         1 QFR       0.001000
     16 C13         -5.0040    15.1420    -7.5890 ca         1 QFR      -0.097500
     17 C14         -5.1850    14.6670    -6.2790 ca         1 QFR      -0.091000
     18 C15         -4.7040    16.9950    -9.2120 cc         1 QFR      -0.179000
     19 O2         -10.1370    18.7150    -0.9490 oh         1 QFR      -0.657000
     20 N3          -5.3670    16.5400    -1.9510 n2         1 QFR      -0.320700
     21 O3          -4.5790    15.8080    -2.8530 os         1 QFR      -0.300000
     22 C16         -5.2240    13.5710    -3.4870 c3         1 QFR      -0.079100
     23 C17         -8.0720    16.0970     3.2050 cc         1 QFR       0.191300
     24 C18         -5.5810    15.8020     2.7280 c3         1 QFR      -0.041700
     25 C19         -5.6130    14.2690     2.9560 c3         1 QFR      -0.095600
     26 C20         -4.4160    16.2020     1.7920 c3         1 QFR      -0.095600
     27 C21         -9.0650    15.1700     3.1560 cd         1 QFR      -0.215000
     28 C22         -9.8300    15.3520     4.3180 cd         1 QFR       0.281300
     29 N4          -9.3730    16.3330     5.0750 nc         1 QFR      -0.363300
     30 O4          -8.2220    16.8310     4.3580 os         1 QFR      -0.112700
     31 C23        -11.0420    14.5650     4.7260 c3         1 QFR      -0.134400
     32 S1          -5.6790    16.5070   -10.5640 ss         1 QFR      -0.048400
     33 C24         -4.6590    17.5250   -11.5490 cc         1 QFR       0.422300
     34 N5          -3.6570    18.1450   -10.9310 nd         1 QFR      -0.636000
     35 C25         -3.6690    17.8320    -9.5790 cd         1 QFR       0.302300
     36 C26         -2.5880    18.3950    -8.6940 c3         1 QFR      -0.122400
     37 H1          -7.1640    19.1420     0.6300 h1         1 QFR       0.061700
     38 H2          -8.6980    18.4680     1.2310 h1         1 QFR       0.061700
     39 H3          -8.7300    16.3890    -1.7080 h1         1 QFR       0.091700
     40 H4          -6.9740    18.9200    -2.1530 hc         1 QFR       0.072200
     41 H5          -8.4570    18.5000    -3.0130 hc         1 QFR       0.072200
     42 H6          -8.6700    20.1880    -0.9350 h1         1 QFR       0.057700
     43 H7          -6.8020    17.5010     2.3440 hc         1 QFR       0.072700
     44 H11         -5.2140    17.6650    -4.6420 ha         1 QFR       0.115500
     45 H12         -4.9070    18.4890    -6.9410 ha         1 QFR       0.120500
     46 H13         -4.9530    14.4340    -8.4130 ha         1 QFR       0.120500
     47 H14         -5.2760    13.5940    -6.1330 ha         1 QFR       0.115500
     48 H16        -10.6040    19.2280    -0.2520 ho         1 QFR       0.448000
     49 H18         -5.2870    13.3350    -2.4180 hc         1 QFR       0.057033
     50 H19         -5.9730    12.9580    -4.0010 hc         1 QFR       0.057033
     51 H20         -4.2320    13.2670    -3.8390 hc         1 QFR       0.057033
     52 H21         -5.3570    16.2480     3.7060 hc         1 QFR       0.055700
     53 H22         -6.4000    13.9870     3.6640 hc         1 QFR       0.044367
     54 H23         -5.7780    13.7250     2.0190 hc         1 QFR       0.044367
     55 H24         -4.6580    13.9270     3.3730 hc         1 QFR       0.044367
     56 H25         -3.4550    15.8860     2.2160 hc         1 QFR       0.044367
     57 H26         -4.5200    15.7340     0.8060 hc         1 QFR       0.044367
     58 H27         -4.3810    17.2900     1.6550 hc         1 QFR       0.044367
     59 H28         -9.2310    14.4330     2.3790 ha         1 QFR       0.171000
     60 H29        -10.8790    14.0660     5.6890 hc         1 QFR       0.057033
     61 H30        -11.9170    15.2180     4.8250 hc         1 QFR       0.057033
     62 H31        -11.2800    13.7940     3.9840 hc         1 QFR       0.057033
     63 H8          -7.4850    15.7320    -3.9620 hn         1 QFR       0.490000
     64 H9          -4.8680    17.6060   -12.6090 h5         1 QFR       0.054100
     65 H10         -1.6940    18.6550    -9.2730 hc         1 QFR       0.053367
     66 H15         -2.9320    19.3040    -8.1870 hc         1 QFR       0.053367
     67 H17         -2.2850    17.6720    -7.9290 hc         1 QFR       0.053367
@<TRIPOS>BOND
     1     1     2 1   
     2     1     5 1   
     3     1    37 1   
     4     1    38 1   
     5     2     3 1   
     6     2     6 1   
     7     3     4 1   
     8     3     9 1   
     9     3    39 1   
    10     4     5 1   
    11     4    40 1   
    12     4    41 1   
    13     5    19 1   
    14     5    42 1   
    15     6     7 1   
    16     6     8 2   
    17     7    23 1   
    18     7    24 1   
    19     7    43 1   
    20     9    10 1   
    21     9    20 2   
    22    10    11 1   
    23    10    63 1   
    24    11    12 1   
    25    11    21 1   
    26    11    22 1   
    27    12    13 ar  
    28    12    17 ar  
    29    13    14 ar  
    30    13    44 1   
    31    14    15 ar  
    32    14    45 1   
    33    15    16 ar  
    34    15    18 1   
    35    16    17 ar  
    36    16    46 1   
    37    17    47 1   
    38    18    32 1   
    39    18    35 2   
    40    19    48 1   
    41    20    21 1   
    42    22    49 1   
    43    22    50 1   
    44    22    51 1   
    45    23    27 2   
    46    23    30 1   
    47    24    25 1   
    48    24    26 1   
    49    24    52 1   
    50    25    53 1   
    51    25    54 1   
    52    25    55 1   
    53    26    56 1   
    54    26    57 1   
    55    26    58 1   
    56    27    28 1   
    57    27    59 1   
    58    28    29 2   
    59    28    31 1   
    60    29    30 1   
    61    31    60 1   
    62    31    61 1   
    63    31    62 1   
    64    32    33 1   
    65    33    34 2   
    66    33    64 1   
    67    34    35 1   
    68    35    36 1   
    69    36    65 1   
    70    36    66 1   
    71    36    67 1   
@<TRIPOS>SUBSTRUCTURE
     1 QFR         1 TEMP              0 ****  ****    0 ROOT
