@<TRIPOS>MOLECULE
QFR
   67    71     1     0     0
SMALL
abcg2


@<TRIPOS>ATOM
      1 C1          -8.0380    18.4290    -0.3950 c5         1 QFR       0.075000
      2 N1          -7.8290    16.9760    -0.3640 n          1 QFR      -0.401800
      3 C2          -8.0210    16.3840    -1.6920 c5         1 QFR       0.085400
      4 C3          -8.3640    17.5880    -2.5980 c5         1 QFR      -0.086400
      5 C4          -8.9080    18.6300    -1.6330 c5         1 QFR       0.150300
      6 C5          -7.7180    16.1610     0.7080 c          1 QFR       0.623100
      7 C6          -7.4770    16.8040     2.0700 c3         1 QFR      -0.171000
      8 O1          -7.7570    14.9370     0.5780 o          1 QFR      -0.589100
      9 C7          -6.8210    15.6400    -2.1910 c2         1 QFR       0.521200
     10 N2          -6.9390    14.6780    -3.1550 nu         1 QFR      -0.908400
     11 C8          -5.6010    14.4920    -3.7060 c5         1 QFR       0.461500
     12 C9          -5.2990    15.3980    -4.9030 ca         1 QFR      -0.127300
     13 C10         -3.9720    15.5570    -5.3040 ca         1 QFR      -0.091000
     14 C11         -3.6420    16.3750    -6.3720 ca         1 QFR      -0.097500
     15 C12         -4.6380    17.0550    -7.0860 ca         1 QFR       0.001000
     16 C13         -5.9650    16.8970    -6.6790 ca         1 QFR      -0.097500
     17 C14         -6.2890    16.0810    -5.6010 ca         1 QFR      -0.091000
     18 C15         -4.2900    17.9180    -8.2200 cc         1 QFR      -0.179000
     19 O2         -10.2760    18.3090    -1.3750 oh         1 QFR      -0.657000
     20 N3          -5.6160    15.8490    -1.8010 n2         1 QFR      -0.320700
     21 O3          -4.8100    14.9250    -2.5710 os         1 QFR      -0.300000
     22 C16         -5.2880    13.0370    -4.0000 c3         1 QFR      -0.079100
     23 C17         -8.2890    16.1560     3.1400 cc         1 QFR       0.191300
     24 C18         -5.9530    16.8090     2.4450 c3         1 QFR      -0.041700
     25 C19         -5.3230    15.4190     2.4780 c3         1 QFR      -0.095600
     26 C20         -5.1700    17.7530     1.5330 c3         1 QFR      -0.095600
     27 C21         -8.7800    14.9140     3.3790 cd         1 QFR      -0.215000
     28 C22         -9.4190    15.0150     4.6480 cd         1 QFR       0.281300
     29 N4          -9.3180    16.2270     5.1360 nc         1 QFR      -0.363300
     30 O4          -8.5990    16.9640     4.1800 os         1 QFR      -0.112700
     31 C23        -10.1290    13.9440     5.4020 c3         1 QFR      -0.134400
     32 S1          -5.0350    19.4740    -8.4300 ss         1 QFR      -0.048400
     33 C24         -4.1010    19.7150    -9.8540 cc         1 QFR       0.422300
     34 N5          -3.3060    18.7310   -10.1570 nd         1 QFR      -0.636000
     35 C25         -3.3970    17.7020    -9.2430 cd         1 QFR       0.302300
     36 C26         -2.5710    16.4740    -9.4600 c3         1 QFR      -0.122400
     37 H1          -7.0900    18.9590    -0.5060 h1         1 QFR       0.061700
     38 H2          -8.5350    18.7850     0.5040 h1         1 QFR       0.061700
     39 H3          -8.8520    15.6770    -1.6540 h1         1 QFR       0.091700
     40 H4          -7.4600    17.9690    -3.0720 hc         1 QFR       0.072200
     41 H5          -9.0820    17.3260    -3.3720 hc         1 QFR       0.072200
     42 H6          -8.8170    19.6460    -2.0230 h1         1 QFR       0.057700
     43 H7          -7.7770    17.8490     2.0500 hc         1 QFR       0.072700
     44 H11         -3.1830    15.0530    -4.7610 ha         1 QFR       0.115500
     45 H12         -2.6030    16.5050    -6.6430 ha         1 QFR       0.120500
     46 H13         -6.7550    17.4090    -7.2140 ha         1 QFR       0.120500
     47 H14         -7.3280    15.9890    -5.3190 ha         1 QFR       0.115500
     48 H16        -10.6150    18.9220    -0.7100 ho         1 QFR       0.448000
     49 H18         -5.4820    12.4340    -3.1140 hc         1 QFR       0.057033
     50 H19         -5.9170    12.6880    -4.8200 hc         1 QFR       0.057033
     51 H20         -4.2460    12.9260    -4.2970 hc         1 QFR       0.057033
     52 H21         -5.9250    17.2190     3.4580 hc         1 QFR       0.055700
     53 H22         -5.8840    14.7350     3.1150 hc         1 QFR       0.044367
     54 H23         -5.2690    14.9850     1.4780 hc         1 QFR       0.044367
     55 H24         -4.3070    15.4920     2.8700 hc         1 QFR       0.044367
     56 H25         -4.1300    17.8030     1.8580 hc         1 QFR       0.044367
     57 H26         -5.1820    17.4040     0.4990 hc         1 QFR       0.044367
     58 H27         -5.5830    18.7640     1.5600 hc         1 QFR       0.044367
     59 H28         -8.6980    14.0490     2.7490 ha         1 QFR       0.171000
     60 H29        -10.5120    14.3260     6.3480 hc         1 QFR       0.057033
     61 H30        -10.9630    13.5550     4.8140 hc         1 QFR       0.057033
     62 H31         -9.4530    13.1110     5.6050 hc         1 QFR       0.057033
     63 H8          -7.7550    14.6350    -3.7460 hn         1 QFR       0.490000
     64 H9          -4.1940    20.6220   -10.4340 h5         1 QFR       0.054100
     65 H10         -2.5020    16.2610   -10.5270 hc         1 QFR       0.053367
     66 H15         -1.5540    16.6110    -9.0820 hc         1 QFR       0.053367
     67 H17         -3.0000    15.6110    -8.9540 hc         1 QFR       0.053367
@<TRIPOS>BOND
     1     1     2 1   
     2     1     5 1   
     3     1    37 1   
     4     1    38 1   
     5     2     3 1   
     6     2     6 1   
     7     3     4 1   
     8     3     9 1   
     9     3    39 1   
    10     4     5 1   
    11     4    40 1   
    12     4    41 1   
    13     5    19 1   
    14     5    42 1   
    15     6     7 1   
    16     6     8 2   
    17     7    23 1   
    18     7    24 1   
    19     7    43 1   
    20     9    10 1   
    21     9    20 2   
    22    10    11 1   
    23    10    63 1   
    24    11    12 1   
    25    11    21 1   
    26    11    22 1   
    27    12    13 ar  
    28    12    17 ar  
    29    13    14 ar  
    30    13    44 1   
    31    14    15 ar  
    32    14    45 1   
    33    15    16 ar  
    34    15    18 1   
    35    16    17 ar  
    36    16    46 1   
    37    17    47 1   
    38    18    32 1   
    39    18    35 2   
    40    19    48 1   
    41    20    21 1   
    42    22    49 1   
    43    22    50 1   
    44    22    51 1   
    45    23    27 2   
    46    23    30 1   
    47    24    25 1   
    48    24    26 1   
    49    24    52 1   
    50    25    53 1   
    51    25    54 1   
    52    25    55 1   
    53    26    56 1   
    54    26    57 1   
    55    26    58 1   
    56    27    28 1   
    57    27    59 1   
    58    28    29 2   
    59    28    31 1   
    60    29    30 1   
    61    31    60 1   
    62    31    61 1   
    63    31    62 1   
    64    32    33 1   
    65    33    34 2   
    66    33    64 1   
    67    34    35 1   
    68    35    36 1   
    69    36    65 1   
    70    36    66 1   
    71    36    67 1   
@<TRIPOS>SUBSTRUCTURE
     1 QFR         1 TEMP              0 ****  ****    0 ROOT
