@<TRIPOS>MOLECULE
QFT
   15    15     1     0     0
SMALL
bcc


@<TRIPOS>ATOM
      1 N           -9.2100    30.8690   -13.9530 no         1 QFT       0.314200
      2 C           -7.8160    33.7790   -12.1120 ca         1 QFT       0.106100
      3 O           -7.5350    35.0640   -12.3610 oh         1 QFT      -0.475100
      4 C1          -8.3530    33.0020   -13.1250 ca         1 QFT      -0.090000
      5 C2          -8.6460    31.6680   -12.8760 ca         1 QFT      -0.156200
      6 C3          -8.4240    31.0750   -11.6440 ca         1 QFT      -0.077000
      7 C4          -7.8880    31.8520   -10.6310 ca         1 QFT      -0.139000
      8 C5          -7.5940    33.1750   -10.8740 ca         1 QFT       0.077900
      9 F           -7.0760    33.9290    -9.8980 f          1 QFT      -0.135900
     10 O1          -9.4040    31.4060   -15.0190 o          1 QFT      -0.202000
     11 O2          -9.4570    29.7080   -13.7280 o          1 QFT      -0.202000
     12 H1          -7.1910    35.5120   -11.5790 ho         1 QFT       0.447000
     13 H2          -8.5330    33.4510   -14.0920 ha         1 QFT       0.189000
     14 H3          -8.6580    30.0380   -11.4610 ha         1 QFT       0.177000
     15 H4          -7.6980    31.4310    -9.6530 ha         1 QFT       0.165000
@<TRIPOS>BOND
     1     1     5 1   
     2     1    10 1   
     3     1    11 1   
     4     2     3 1   
     5     2     4 ar  
     6     2     8 ar  
     7     3    12 1   
     8     4     5 ar  
     9     4    13 1   
    10     5     6 ar  
    11     6     7 ar  
    12     6    14 1   
    13     7     8 ar  
    14     7    15 1   
    15     8     9 1   
@<TRIPOS>SUBSTRUCTURE
     1 QFT         1 TEMP              0 ****  ****    0 ROOT
