@<TRIPOS>MOLECULE
QFT
   15    15     1     0     0
SMALL
No Charge or Current Charge


@<TRIPOS>ATOM
      1 N           -9.2450    30.8100   -14.0150 no         1 QFT       0.694200
      2 C           -7.8130    33.7990   -12.1040 ca         1 QFT       0.106100
      3 O           -7.5230    35.1160   -12.3430 oh         1 QFT      -0.514100
      4 C1          -8.3560    33.0130   -13.1350 ca         1 QFT      -0.072000
      5 C2          -8.6650    31.6470   -12.9130 ca         1 QFT      -0.156200
      6 C3          -8.4180    31.0840   -11.6360 ca         1 QFT      -0.059000
      7 C4          -7.8750    31.8730   -10.6070 ca         1 QFT      -0.121000
      8 C5          -7.5730    33.2230   -10.8390 ca         1 QFT       0.113000
      9 F           -7.0510    33.9700    -9.8390 f          1 QFT      -0.171000
     10 O1          -9.4440    31.3450   -15.1140 o          1 QFT      -0.392000
     11 O2          -9.4990    29.6220   -13.7760 o          1 QFT      -0.392000
     12 H1          -7.1550    35.5060   -11.5190 ho         1 QFT       0.486000
     13 H2          -8.5340    33.4740   -14.1040 ha         1 QFT       0.171000
     14 H3          -8.6450    30.0380   -11.4340 ha         1 QFT       0.159000
     15 H4          -7.6860    31.4380    -9.6280 ha         1 QFT       0.147000
@<TRIPOS>BOND
     1     1     5 1   
     2     1    10 1   
     3     1    11 1   
     4     2     3 1   
     5     2     4 ar  
     6     2     8 ar  
     7     3    12 1   
     8     4     5 ar  
     9     4    13 1   
    10     5     6 ar  
    11     6     7 ar  
    12     6    14 1   
    13     7     8 ar  
    14     7    15 1   
    15     8     9 1   
@<TRIPOS>SUBSTRUCTURE
     1 QFT         1 TEMP              0 ****  ****    0 ROOT
