@<TRIPOS>MOLECULE
QFU
   35    37     1     0     0
SMALL
abcg2


@<TRIPOS>ATOM
      1 N1         -20.0760     5.6010    26.4450 ns         1 QFU      -0.171000
      2 C4         -22.6040     5.4360    31.7000 ca         1 QFU      -0.112000
      3 C5         -22.5940     4.0680    31.9230 ca         1 QFU      -0.065000
      4 C6         -22.3970     3.2060    30.8390 ca         1 QFU      -0.018000
      5 C7         -22.3880     1.7940    31.0500 cg         1 QFU       0.323000
      6 C8         -22.2090     3.7120    29.5490 ca         1 QFU      -0.065000
      7 C10        -17.9590     4.7300    25.6950 ca         1 QFU       0.310900
      8 C13        -16.3350     8.5000    25.0870 ca         1 QFU      -0.084000
      9 C15        -18.4020     9.5320    25.7790 ca         1 QFU      -0.092000
     10 C17        -18.2420     7.1240    25.7850 ca         1 QFU      -0.002000
     11 N          -22.3770     0.6530    31.2230 n1         1 QFU      -0.451000
     12 C3         -22.4160     5.9380    30.4160 ca         1 QFU      -0.061000
     13 C2         -22.2170     5.0850    29.3310 ca         1 QFU      -0.080300
     14 C1         -21.9800     5.6290    27.9490 c3         1 QFU      -0.108100
     15 C          -20.5060     5.9230    27.6920 c          1 QFU       0.597100
     16 O          -19.7840     6.4420    28.5320 o          1 QFU      -0.567100
     17 C9         -18.7500     5.8130    25.9850 ca         1 QFU      -0.077000
     18 C16        -18.9810     8.3090    26.0070 ca         1 QFU      -0.087000
     19 C14        -17.0690     9.6330    25.3210 ca         1 QFU      -0.106000
     20 C12        -16.9060     7.2250    25.3080 ca         1 QFU      -0.091000
     21 C11        -16.1920     6.0300    25.0490 ca         1 QFU       0.359900
     22 N2         -16.6910     4.8270    25.2210 nb         1 QFU      -0.652000
     23 H1         -20.6930     5.0650    25.8530 hn         1 QFU       0.156000
     24 H2         -22.7600     6.1150    32.5280 ha         1 QFU       0.124000
     25 H3         -22.7410     3.6650    32.9160 ha         1 QFU       0.127000
     26 H4         -22.0570     3.0300    28.7220 ha         1 QFU       0.121000
     27 H5         -18.3470     3.7290    25.8410 h4         1 QFU       0.021100
     28 H6         -15.3150     8.5610    24.7270 ha         1 QFU       0.118000
     29 H7         -18.9740    10.4350    25.9490 ha         1 QFU       0.116000
     30 H8         -22.4280     7.0080    30.2520 ha         1 QFU       0.122000
     31 H9         -22.5060     6.5800    27.8250 hc         1 QFU       0.067200
     32 H10        -22.3650     4.9420    27.1960 hc         1 QFU       0.067200
     33 H11        -20.0020     8.2450    26.3520 ha         1 QFU       0.120000
     34 H12        -16.6360    10.6100    25.1510 ha         1 QFU       0.118000
     35 H13        -15.1730     6.0990    24.6810 h4         1 QFU       0.022100
@<TRIPOS>BOND
     1     1    15 1   
     2     1    17 1   
     3     1    23 1   
     4     2     3 ar  
     5     2    12 ar  
     6     2    24 1   
     7     3     4 ar  
     8     3    25 1   
     9     4     5 1   
    10     4     6 ar  
    11     5    11 3   
    12     6    13 ar  
    13     6    26 1   
    14     7    17 ar  
    15     7    22 ar  
    16     7    27 1   
    17     8    19 ar  
    18     8    20 ar  
    19     8    28 1   
    20     9    18 ar  
    21     9    19 ar  
    22     9    29 1   
    23    10    17 ar  
    24    10    18 ar  
    25    10    20 ar  
    26    12    13 ar  
    27    12    30 1   
    28    13    14 1   
    29    14    15 1   
    30    14    31 1   
    31    14    32 1   
    32    15    16 2   
    33    18    33 1   
    34    19    34 1   
    35    20    21 ar  
    36    21    22 ar  
    37    21    35 1   
@<TRIPOS>SUBSTRUCTURE
     1 QFU         1 TEMP              0 ****  ****    0 ROOT
