@<TRIPOS>MOLECULE
QFU
   35    37     1     0     0
SMALL
No Charge or Current Charge


@<TRIPOS>ATOM
      1 N1         -20.0890     5.8050    26.9040 ns         1 QFU      -0.171000
      2 C4         -22.4770     5.0430    31.8280 ca         1 QFU      -0.112000
      3 C5         -22.4190     3.6440    31.7130 ca         1 QFU      -0.065000
      4 C6         -22.2840     3.0460    30.4450 ca         1 QFU      -0.018000
      5 C7         -22.2240     1.6150    30.3250 cg         1 QFU       0.323000
      6 C8         -22.2090     3.8570    29.2950 ca         1 QFU      -0.065000
      7 C10        -17.9390     4.7770    26.4290 ca         1 QFU       0.310900
      8 C13        -16.3180     8.2650    24.8530 ca         1 QFU      -0.084000
      9 C15        -18.4180     9.4540    25.1480 ca         1 QFU      -0.092000
     10 C17        -18.2400     7.1170    25.8470 ca         1 QFU      -0.002000
     11 N          -22.1710     0.4530    30.2170 n1         1 QFU      -0.451000
     12 C3         -22.4010     5.8490    30.6800 ca         1 QFU      -0.061000
     13 C2         -22.2680     5.2610    29.4070 ca         1 QFU      -0.080300
     14 C1         -22.1790     6.1380    28.1610 c3         1 QFU      -0.108100
     15 C          -20.7260     6.5460    27.8880 c          1 QFU       0.597100
     16 O          -20.1700     7.4390    28.5180 o          1 QFU      -0.567100
     17 C9         -18.7660     5.9200    26.3950 ca         1 QFU      -0.077000
     18 C16        -19.0010     8.2990    25.7000 ca         1 QFU      -0.087000
     19 C14        -17.0780     9.4400    24.7310 ca         1 QFU      -0.106000
     20 C12        -16.8980     7.1050    25.4030 ca         1 QFU      -0.091000
     21 C11        -16.1500     5.9150    25.5050 ca         1 QFU       0.359900
     22 N2         -16.6570     4.7640    26.0010 nb         1 QFU      -0.652000
     23 H1         -20.6370     5.0530    26.5070 hn         1 QFU       0.156000
     24 H2         -22.5800     5.5030    32.8080 ha         1 QFU       0.124000
     25 H3         -22.4780     3.0270    32.6080 ha         1 QFU       0.127000
     26 H4         -22.1040     3.3950    28.3150 ha         1 QFU       0.121000
     27 H5         -18.3150     3.8370    26.8320 h4         1 QFU       0.021100
     28 H6         -15.2830     8.2560    24.5160 ha         1 QFU       0.118000
     29 H7         -19.0100    10.3610    25.0410 ha         1 QFU       0.116000
     30 H8         -22.4440     6.9320    30.7800 ha         1 QFU       0.122000
     31 H9         -22.7750     7.0460    28.3090 hc         1 QFU       0.067200
     32 H10        -22.5740     5.5830    27.3020 hc         1 QFU       0.067200
     33 H11        -20.0440     8.3370    25.9950 ha         1 QFU       0.120000
     34 H12        -16.6310    10.3350    24.3040 ha         1 QFU       0.118000
     35 H13        -15.1150     5.8780    25.1680 h4         1 QFU       0.022100
@<TRIPOS>BOND
     1     1    15 1   
     2     1    17 1   
     3     1    23 1   
     4     2     3 ar  
     5     2    12 ar  
     6     2    24 1   
     7     3     4 ar  
     8     3    25 1   
     9     4     5 1   
    10     4     6 ar  
    11     5    11 3   
    12     6    13 ar  
    13     6    26 1   
    14     7    17 ar  
    15     7    22 ar  
    16     7    27 1   
    17     8    19 ar  
    18     8    20 ar  
    19     8    28 1   
    20     9    18 ar  
    21     9    19 ar  
    22     9    29 1   
    23    10    17 ar  
    24    10    18 ar  
    25    10    20 ar  
    26    12    13 ar  
    27    12    30 1   
    28    13    14 1   
    29    14    15 1   
    30    14    31 1   
    31    14    32 1   
    32    15    16 2   
    33    18    33 1   
    34    19    34 1   
    35    20    21 ar  
    36    21    22 ar  
    37    21    35 1   
@<TRIPOS>SUBSTRUCTURE
     1 QFU         1 TEMP              0 ****  ****    0 ROOT
