@<TRIPOS>MOLECULE
QFV
   71    76     1     0     0
SMALL
No Charge or Current Charge


@<TRIPOS>ATOM
      1 C4           1.8040    -0.8690    -1.8750 ca         1 QFV      -0.096000
      2 C5           1.8170    -0.9700    -0.4620 ca         1 QFV      -0.034000
      3 C6           0.7440    -0.3960     0.2700 ca         1 QFV      -0.018000
      4 C7          -0.3040     0.2690    -0.4120 ca         1 QFV       0.121100
      5 C10         -2.6440     2.6780     1.0800 cp         1 QFV      -0.221500
      6 C13         -0.3510     4.2160     0.8160 ca         1 QFV       0.385900
      7 C15         -3.8740     1.8420     1.2130 cp         1 QFV       0.236500
      8 C17         -5.8920     1.1660     2.3620 ca         1 QFV       0.150900
      9 C22         -6.6680    -1.5900    -0.7760 c6         1 QFV       0.246500
     10 C24         -6.8590    -2.0490    -2.2440 c6         1 QFV      -0.088400
     11 C26         -7.5530    -4.3630    -1.3980 c6         1 QFV       0.156800
     12 C28         -6.3560    -2.8290     0.1330 c6         1 QFV       0.138800
     13 C2          -0.3070     0.3520    -1.8210 ca         1 QFV      -0.063300
     14 C3           0.7550    -0.2180    -2.5420 ca         1 QFV      -0.094000
     15 O8          -1.3470     0.8230     0.2980 os         1 QFV      -0.355400
     16 C9          -1.4080     2.1660     0.5930 ca         1 QFV       0.611300
     17 C11         -2.6760     4.0430     1.4500 ca         1 QFV      -0.031000
     18 C12         -1.5160     4.8150     1.3110 ca         1 QFV      -0.205000
     19 N14         -0.2890     2.9160     0.4680 nb         1 QFV      -0.738000
     20 C16         -4.7360     1.9610     2.3260 ca         1 QFV      -0.284000
     21 N18         -6.1850     0.3150     1.3630 nb         1 QFV      -0.240000
     22 C19         -5.3130     0.2730     0.3370 ca         1 QFV       0.389900
     23 N20         -4.1880     0.9950     0.2130 nb         1 QFV      -0.242000
     24 N21         -5.5810    -0.5860    -0.7210 nu         1 QFV      -0.924100
     25 C25         -7.9160    -3.1810    -2.3320 c6         1 QFV      -0.072400
     26 N27         -7.3780    -3.9090     0.0030 n7         1 QFV      -0.860400
     27 C29          0.7280    -0.4900     1.6780 ca         1 QFV      -0.081000
     28 C30          1.7630    -1.1450     2.3550 ca         1 QFV      -0.101000
     29 C31          2.8270    -1.7070     1.6370 ca         1 QFV      -0.113000
     30 C32          2.8760    -1.6230     0.2310 ca         1 QFV       0.299000
     31 N33          3.9570    -2.1730    -0.4660 nu         1 QFV      -0.964100
     32 S34          5.5690    -2.2170    -0.0120 sy         1 QFV       1.197600
     33 O35          5.6380    -3.2570     1.0180 o          1 QFV      -0.532000
     34 O36          6.2390    -2.3620    -1.3040 o          1 QFV      -0.532000
     35 C37          5.9160    -0.6000     0.6860 ca         1 QFV      -0.278500
     36 C38          6.3080    -0.5080     2.0410 ca         1 QFV      -0.008000
     37 C39          6.5720     0.7450     2.6190 ca         1 QFV      -0.130000
     38 C40          6.4450     1.9150     1.8550 ca         1 QFV      -0.051000
     39 C41          6.0500     1.8290     0.5100 ca         1 QFV      -0.126000
     40 C42          5.7840     0.5810    -0.0790 ca         1 QFV       0.205000
     41 Cl43         5.2660     0.5760    -1.7670 cl         1 QFV      -0.177000
     42 H1           2.5980    -1.2950    -2.4800 ha         1 QFV       0.116000
     43 H2           0.5640     4.7950     0.6990 h4         1 QFV       0.023100
     44 H3          -6.5900     1.2110     3.1970 h4         1 QFV       0.020100
     45 H4          -7.6180    -1.1460    -0.4380 h1         1 QFV       0.091700
     46 H5          -7.1710    -1.2000    -2.8680 hc         1 QFV       0.043700
     47 H6          -5.9060    -2.4110    -2.6530 hc         1 QFV       0.043700
     48 H7          -8.3450    -5.1250    -1.4410 h1         1 QFV       0.030200
     49 H8          -6.6210    -4.8320    -1.7480 h1         1 QFV       0.030200
     50 H9          -5.3690    -3.2330    -0.1380 h1         1 QFV       0.040200
     51 H10         -6.3010    -2.5090     1.1830 h1         1 QFV       0.040200
     52 H11         -1.4220     2.1290    -2.3930 hc         1 QFV       0.052367
     53 H12         -1.3770     0.8850    -3.6490 hc         1 QFV       0.052367
     54 H13         -2.4180     0.6710    -2.2390 hc         1 QFV       0.052367
     55 H14          0.7700    -0.1600    -3.6280 ha         1 QFV       0.116000
     56 H15         -3.5910     4.4990     1.8250 ha         1 QFV       0.126000
     57 H16         -1.5130     5.8680     1.5800 ha         1 QFV       0.130000
     58 H17         -4.5110     2.6420     3.1420 ha         1 QFV       0.134000
     59 H18         -4.8860    -0.5830    -1.4660 hn         1 QFV       0.502000
     60 H19         -8.9050    -2.7880    -2.0590 hc         1 QFV       0.049700
     61 H20         -7.9970    -3.5380    -3.3670 hc         1 QFV       0.049700
     62 H21         -7.0920    -4.7120     0.5800 hn         1 QFV       0.416000
     63 H23         -0.0850    -0.0590     2.2560 ha         1 QFV       0.127000
     64 H24          1.7420    -1.2180     3.4410 ha         1 QFV       0.117000
     65 H25          3.6100    -2.2150     2.1880 ha         1 QFV       0.119000
     66 H26          4.0050    -1.9720    -1.4530 hn         1 QFV       0.521000
     67 H27          6.4110    -1.4030     2.6530 ha         1 QFV       0.149000
     68 H28          6.8750     0.8080     3.6620 ha         1 QFV       0.125000
     69 H29          6.6490     2.8850     2.3040 ha         1 QFV       0.122000
     70 H30          5.9450     2.7360    -0.0790 ha         1 QFV       0.133000
     71 C1          -1.4420     1.0470    -2.5670 c3         1 QFV      -0.053800
@<TRIPOS>BOND
     1     1     2 ar  
     2     1    14 ar  
     3     1    42 1   
     4     2     3 ar  
     5     2    30 ar  
     6     3     4 ar  
     7     3    27 ar  
     8     4    13 ar  
     9     4    15 1   
    10     5     7 1   
    11     5    16 ar  
    12     5    17 ar  
    13     6    18 ar  
    14     6    19 ar  
    15     6    43 1   
    16     7    20 ar  
    17     7    23 ar  
    18     8    20 ar  
    19     8    21 ar  
    20     8    44 1   
    21     9    10 1   
    22     9    12 1   
    23     9    24 1   
    24     9    45 1   
    25    10    25 1   
    26    10    46 1   
    27    10    47 1   
    28    11    25 1   
    29    11    26 1   
    30    11    48 1   
    31    11    49 1   
    32    12    26 1   
    33    12    50 1   
    34    12    51 1   
    35    13    14 ar  
    36    13    71 1   
    37    14    55 1   
    38    15    16 1   
    39    16    19 ar  
    40    17    18 ar  
    41    17    56 1   
    42    18    57 1   
    43    20    58 1   
    44    21    22 ar  
    45    22    23 ar  
    46    22    24 1   
    47    24    59 1   
    48    25    60 1   
    49    25    61 1   
    50    26    62 1   
    51    27    28 ar  
    52    27    63 1   
    53    28    29 ar  
    54    28    64 1   
    55    29    30 ar  
    56    29    65 1   
    57    30    31 1   
    58    31    32 1   
    59    31    66 1   
    60    32    33 2   
    61    32    34 2   
    62    32    35 1   
    63    35    36 ar  
    64    35    40 ar  
    65    36    37 ar  
    66    36    67 1   
    67    37    38 ar  
    68    37    68 1   
    69    38    39 ar  
    70    38    69 1   
    71    39    40 ar  
    72    39    70 1   
    73    40    41 1   
    74    52    71 1   
    75    53    71 1   
    76    54    71 1   
@<TRIPOS>SUBSTRUCTURE
     1 QFV         1 TEMP              0 ****  ****    0 ROOT
