@<TRIPOS>MOLECULE
QFV
   71    76     1     0     0
SMALL
bcc


@<TRIPOS>ATOM
      1 C4           1.7410     0.3490    -2.0960 ca         1 QFV      -0.114000
      2 C5           1.8240     0.5140    -0.6960 ca         1 QFV      -0.034000
      3 C6           0.6650     0.9190     0.0170 ca         1 QFV      -0.018000
      4 C7          -0.5220     1.1540    -0.7150 ca         1 QFV       0.121100
      5 C10         -3.3530     3.0050     0.5200 cp         1 QFV      -0.286800
      6 C13         -1.6310     4.9680    -0.2790 ca         1 QFV       0.451200
      7 C15         -4.2820     1.9190     0.8950 cp         1 QFV       0.564800
      8 C17         -5.7840     0.8770     2.3750 ca         1 QFV       0.479200
      9 C22         -6.4330    -2.1010    -0.4140 c6         1 QFV       0.246500
     10 C24         -6.9110    -2.6220    -1.7640 c6         1 QFV      -0.088400
     11 C26         -6.9410    -4.9270    -0.7740 c6         1 QFV       0.156800
     12 C28         -5.6940    -3.2040     0.3460 c6         1 QFV       0.138800
     13 C2          -0.6010     1.0010    -2.0750 ca         1 QFV      -0.063300
     14 C3           0.5660     0.5860    -2.7530 ca         1 QFV      -0.112000
     15 O8          -1.6530     1.4780    -0.0050 os         1 QFV      -0.355400
     16 C9          -2.0670     2.7600     0.0200 ca         1 QFV       0.676600
     17 C11         -3.7280     4.3340     0.6340 ca         1 QFV      -0.049000
     18 C12         -2.8600     5.3410     0.2280 ca         1 QFV      -0.288300
     19 N14         -1.2390     3.6980    -0.3700 nb         1 QFV      -0.738000
     20 C16         -4.9120     1.9250     2.1370 ca         1 QFV      -0.432600
     21 N18         -6.0220    -0.0840     1.4990 nb         1 QFV      -0.766000
     22 C19         -5.3710     0.0060     0.3330 ca         1 QFV       0.915900
     23 N20         -4.5070     0.9730    -0.0010 nb         1 QFV      -0.768000
     24 N21         -5.6040    -0.9320    -0.6030 nu         1 QFV      -0.868900
     25 C25         -7.7200    -3.9030    -1.5850 c6         1 QFV      -0.072400
     26 N27         -6.5660    -4.3510     0.5060 n7         1 QFV      -0.805200
     27 C29          0.7210     1.0500     1.4250 ca         1 QFV      -0.099000
     28 C30          1.8880     0.8080     2.0940 ca         1 QFV      -0.119000
     29 C31          3.0540     0.4480     1.3940 ca         1 QFV      -0.131000
     30 C32          3.0250     0.2980     0.0340 ca         1 QFV       0.160600
     31 N33          4.1950    -0.0670    -0.6660 nu         1 QFV      -0.770500
     32 S34          4.8850    -1.5470    -0.5320 sy         1 QFV       1.339200
     33 O35          3.8570    -2.4920    -0.1400 o          1 QFV      -0.602800
     34 O36          5.6590    -1.7650    -1.7390 o          1 QFV      -0.602800
     35 C37          6.0130    -1.4190     0.8390 ca         1 QFV      -0.278500
     36 C38          5.8190    -2.2540     1.9320 ca         1 QFV      -0.026000
     37 C39          6.6830    -2.1950     3.0140 ca         1 QFV      -0.148000
     38 C40          7.7420    -1.3010     3.0030 ca         1 QFV      -0.069000
     39 C41          7.9430    -0.4650     1.9150 ca         1 QFV      -0.144000
     40 C42          7.0820    -0.5260     0.8320 ca         1 QFV       0.113400
     41 CL43         7.3610     0.5420    -0.4930 cl         1 QFV      -0.085400
     42 H1           2.6060     0.0180    -2.6540 ha         1 QFV       0.134000
     43 H2          -0.9240     5.7130    -0.6230 h4         1 QFV       0.023100
     44 H3          -6.3100     0.8060     3.3220 h4         1 QFV       0.020100
     45 H4          -7.3040    -1.8080     0.1790 h1         1 QFV       0.091700
     46 H5          -7.5030    -1.8580    -2.2730 hc         1 QFV       0.043700
     47 H6          -6.0430    -2.8290    -2.4010 hc         1 QFV       0.043700
     48 H7          -7.5530    -5.8130    -0.5980 h1         1 QFV       0.030200
     49 H8          -6.0660    -5.2530    -1.3600 h1         1 QFV       0.030200
     50 H9          -4.7660    -3.4400    -0.2030 h1         1 QFV       0.040200
     51 H10         -5.4030    -2.8360     1.3310 h1         1 QFV       0.040200
     52 H11         -2.0200     2.3320    -2.9850 hc         1 QFV       0.052367
     53 H12         -1.8410     0.7900    -3.8070 hc         1 QFV       0.052367
     54 H13         -2.7460     0.8910    -2.2920 hc         1 QFV       0.052367
     55 H14          0.5180     0.4450    -3.8260 ha         1 QFV       0.134000
     56 H15         -4.7100     4.5830     1.0150 ha         1 QFV       0.144000
     57 H16         -3.1380     6.3830     0.2950 ha         1 QFV       0.148000
     58 H17         -4.7220     2.6850     2.8800 ha         1 QFV       0.152000
     59 H18         -5.0430    -0.8680    -1.4390 hn         1 QFV       0.446800
     60 H19         -8.6580    -3.6750    -1.0710 hc         1 QFV       0.049700
     61 H20         -7.9830    -4.3200    -2.5590 hc         1 QFV       0.049700
     62 H21         -6.1050    -5.0490     1.0740 hn         1 QFV       0.360800
     63 H23         -0.1630     1.3370     1.9780 ha         1 QFV       0.145000
     64 H24          1.9280     0.9100     3.1700 ha         1 QFV       0.135000
     65 H25          3.9780     0.2980     1.9370 ha         1 QFV       0.137000
     66 H26          4.5430     0.5180    -1.4140 hn         1 QFV       0.465800
     67 H27          4.9910    -2.9480     1.9420 ha         1 QFV       0.167000
     68 H28          6.5240    -2.8470     3.8610 ha         1 QFV       0.143000
     69 H29          8.4190    -1.2460     3.8450 ha         1 QFV       0.140000
     70 H30          8.7680     0.2340     1.9070 ha         1 QFV       0.151000
     71 C1          -1.8710     1.2620    -2.8260 c3         1 QFV      -0.053800
@<TRIPOS>BOND
     1     1     2 ar  
     2     1    14 ar  
     3     1    42 1   
     4     2     3 ar  
     5     2    30 ar  
     6     3     4 ar  
     7     3    27 ar  
     8     4    13 ar  
     9     4    15 1   
    10     5     7 1   
    11     5    16 ar  
    12     5    17 ar  
    13     6    18 ar  
    14     6    19 ar  
    15     6    43 1   
    16     7    20 ar  
    17     7    23 ar  
    18     8    20 ar  
    19     8    21 ar  
    20     8    44 1   
    21     9    10 1   
    22     9    12 1   
    23     9    24 1   
    24     9    45 1   
    25    10    25 1   
    26    10    46 1   
    27    10    47 1   
    28    11    25 1   
    29    11    26 1   
    30    11    48 1   
    31    11    49 1   
    32    12    26 1   
    33    12    50 1   
    34    12    51 1   
    35    13    14 ar  
    36    13    71 1   
    37    14    55 1   
    38    15    16 1   
    39    16    19 ar  
    40    17    18 ar  
    41    17    56 1   
    42    18    57 1   
    43    20    58 1   
    44    21    22 ar  
    45    22    23 ar  
    46    22    24 1   
    47    24    59 1   
    48    25    60 1   
    49    25    61 1   
    50    26    62 1   
    51    27    28 ar  
    52    27    63 1   
    53    28    29 ar  
    54    28    64 1   
    55    29    30 ar  
    56    29    65 1   
    57    30    31 1   
    58    31    32 1   
    59    31    66 1   
    60    32    33 2   
    61    32    34 2   
    62    32    35 1   
    63    35    36 ar  
    64    35    40 ar  
    65    36    37 ar  
    66    36    67 1   
    67    37    38 ar  
    68    37    68 1   
    69    38    39 ar  
    70    38    69 1   
    71    39    40 ar  
    72    39    70 1   
    73    40    41 1   
    74    52    71 1   
    75    53    71 1   
    76    54    71 1   
@<TRIPOS>SUBSTRUCTURE
     1 QFV         1 TEMP              0 ****  ****    0 ROOT
