@<TRIPOS>MOLECULE
QFW
   46    48     1     0     0
SMALL
abcg2


@<TRIPOS>ATOM
      1 N1         226.5540   119.6710   123.3200 nu         1 QFW      -0.852100
      2 C4         224.5600   118.6830   124.3350 ca         1 QFW      -0.208000
      3 C5         225.9450   118.8500   124.2960 ca         1 QFW       0.265000
      4 C6         226.7550   118.2490   125.2490 ca         1 QFW      -0.245000
      5 C7         226.8830   117.6760   121.4780 ca         1 QFW      -0.313500
      6 C8         225.9390   116.6920   121.3480 ca         1 QFW       0.054000
      7 C10        225.4050   114.2990   121.0710 ca         1 QFW      -0.041000
      8 C13        228.1360   113.6840   121.0820 ca         1 QFW      -0.225000
      9 C15        228.6650   116.0770   121.3600 ca         1 QFW      -0.130000
     10 C17        228.8320   110.9560   120.8230 c3         1 QFW       0.163600
     11 C1         226.1920   117.4890   126.2780 ca         1 QFW       0.231100
     12 C2         224.7960   117.3020   126.3210 ca         1 QFW      -0.270600
     13 C3         224.0150   117.9030   125.3410 ca         1 QFW      -0.023000
     14 C9         226.3440   115.3490   121.2150 ca         1 QFW      -0.096000
     15 C11        225.8160   113.0080   120.9400 ca         1 QFW      -0.144000
     16 C12        227.1990   112.6870   120.9440 ca         1 QFW       0.168100
     17 C14        227.7250   115.0280   121.2190 ca         1 QFW       0.048000
     18 C16        228.2620   117.3750   121.4880 ca         1 QFW      -0.023000
     19 S1         226.3840   119.3550   121.6930 sy         1 QFW       1.144600
     20 O1         224.9770   119.4660   121.3560 o          1 QFW      -0.552500
     21 O2         227.3540   120.2230   121.0490 o          1 QFW      -0.552500
     22 O3         227.4760   111.3860   120.8050 os         1 QFW      -0.348100
     23 C18        228.8560   109.4480   120.6960 c3         1 QFW      -0.074400
     24 C19        228.1870   108.7230   121.8560 c3         1 QFW      -0.087100
     25 O4         222.9600   116.3250   127.4560 o          1 QFW      -0.690500
     26 O5         225.0090   116.0020   128.2670 o          1 QFW      -0.690500
     27 O6         226.9790   116.9440   127.1950 oh         1 QFW      -0.634100
     28 H4         227.5170   119.9110   123.5340 hn         1 QFW       0.479000
     29 HC1        223.9190   119.1700   123.6160 ha         1 QFW       0.124000
     30 HC2        227.8310   118.3720   125.2060 ha         1 QFW       0.103000
     31 HC3        224.8810   116.9240   121.3410 ha         1 QFW       0.143000
     32 HC4        224.3470   114.5330   121.0670 ha         1 QFW       0.124000
     33 HC6        229.1970   113.4730   121.0860 ha         1 QFW       0.115000
     34 HC7        229.7220   115.8410   121.3610 ha         1 QFW       0.108000
     35 HC9        229.3110   111.2680   121.7580 h1         1 QFW       0.036200
     36 HC10       229.3820   111.4180   119.9960 h1         1 QFW       0.036200
     37 HC         222.9420   117.7690   125.3790 ha         1 QFW       0.125000
     38 HC5        225.0950   112.2070   120.8310 ha         1 QFW       0.126000
     39 HC8        228.9970   118.1620   121.5900 ha         1 QFW       0.122000
     40 HC11       228.3980   109.1560   119.7480 hc         1 QFW       0.044700
     41 HC12       229.9050   109.1530   120.6320 hc         1 QFW       0.044700
     42 HC15       228.2830   107.6430   121.7430 hc         1 QFW       0.037700
     43 HC14       228.6480   108.9970   122.8070 hc         1 QFW       0.037700
     44 HC13       227.1240   108.9530   121.9220 hc         1 QFW       0.037700
     45 H19        226.3070   116.4490   127.8090 ho         1 QFW       0.553000
     46 C20        224.1820   116.4820   127.4240 c          1 QFW       0.724600
@<TRIPOS>BOND
     1     1     3 1   
     2     1    19 1   
     3     1    28 1   
     4     2     3 ar  
     5     2    13 ar  
     6     2    29 1   
     7     3     4 ar  
     8     4    11 ar  
     9     4    30 1   
    10     5     6 ar  
    11     5    18 ar  
    12     5    19 1   
    13     6    14 ar  
    14     6    31 1   
    15     7    14 ar  
    16     7    15 ar  
    17     7    32 1   
    18     8    16 ar  
    19     8    17 ar  
    20     8    33 1   
    21     9    17 ar  
    22     9    18 ar  
    23     9    34 1   
    24    10    22 1   
    25    10    23 1   
    26    10    35 1   
    27    10    36 1   
    28    11    12 ar  
    29    11    27 1   
    30    12    13 ar  
    31    12    46 1   
    32    13    37 1   
    33    14    17 ar  
    34    15    16 ar  
    35    15    38 1   
    36    16    22 1   
    37    18    39 1   
    38    19    20 2   
    39    19    21 2   
    40    23    24 1   
    41    23    40 1   
    42    23    41 1   
    43    24    42 1   
    44    24    43 1   
    45    24    44 1   
    46    25    46 1   
    47    26    46 1   
    48    27    45 1   
@<TRIPOS>SUBSTRUCTURE
     1 QFW         1 TEMP              0 ****  ****    0 ROOT
