@<TRIPOS>MOLECULE
QFW
   46    48     1     0     0
SMALL
No Charge or Current Charge


@<TRIPOS>ATOM
      1 N1         226.4560   119.6350   123.3400 nu         1 QFW      -0.852100
      2 C4         224.8090   118.0630   124.2420 ca         1 QFW      -0.208000
      3 C5         225.9330   118.8920   124.3880 ca         1 QFW       0.265000
      4 C6         226.5510   118.9860   125.6380 ca         1 QFW      -0.245000
      5 C7         226.9050   117.6430   121.4790 ca         1 QFW      -0.313500
      6 C8         225.9470   116.6530   121.1840 ca         1 QFW       0.054000
      7 C10        225.3910   114.3160   120.7450 ca         1 QFW      -0.041000
      8 C13        228.1020   113.6140   121.0430 ca         1 QFW      -0.225000
      9 C15        228.6550   115.9480   121.4810 ca         1 QFW      -0.130000
     10 C17        228.8290   110.8180   120.7340 c3         1 QFW       0.163600
     11 C1         226.0670   118.2540   126.7290 ca         1 QFW       0.231100
     12 C2         224.9440   117.4100   126.5970 ca         1 QFW      -0.270600
     13 C3         224.3180   117.3260   125.3320 ca         1 QFW      -0.023000
     14 C9         226.3440   115.3100   121.0380 ca         1 QFW      -0.096000
     15 C11        225.7950   112.9780   120.6020 ca         1 QFW      -0.144000
     16 C12        227.1440   112.6200   120.7490 ca         1 QFW       0.168100
     17 C14        227.7020   114.9560   121.1870 ca         1 QFW       0.048000
     18 C16        228.2610   117.2880   121.6280 ca         1 QFW      -0.023000
     19 S1         226.3980   119.3530   121.6850 sy         1 QFW       1.144600
     20 O1         224.9890   119.5280   121.3200 o          1 QFW      -0.552500
     21 O2         227.4510   120.2400   121.1860 o          1 QFW      -0.552500
     22 O3         227.4770   111.2900   120.5970 os         1 QFW      -0.348100
     23 C18        228.8320   109.2910   120.5080 c3         1 QFW      -0.074400
     24 C19        228.0340   108.4990   121.5660 c3         1 QFW      -0.087100
     25 O4         223.4280   115.9020   127.5880 o          1 QFW      -0.690500
     26 O5         224.9780   116.7140   128.8420 o          1 QFW      -0.690500
     27 O6         226.7000   118.3730   127.9230 oh         1 QFW      -0.634100
     28 H4         227.3300   120.1120   123.5080 hn         1 QFW       0.479000
     29 HC1        224.2980   117.9860   123.2890 ha         1 QFW       0.124000
     30 HC2        227.4170   119.6280   125.7700 ha         1 QFW       0.103000
     31 HC3        224.8980   116.9190   121.0680 ha         1 QFW       0.143000
     32 HC4        224.3410   114.5760   120.6290 ha         1 QFW       0.124000
     33 HC6        229.1510   113.3630   121.1610 ha         1 QFW       0.115000
     34 HC7        229.7030   115.6820   121.5980 ha         1 QFW       0.108000
     35 HC9        229.2220   111.0410   121.7350 h1         1 QFW       0.036200
     36 HC10       229.4800   111.2930   119.9890 h1         1 QFW       0.036200
     37 HC         223.4460   116.6910   125.1860 ha         1 QFW       0.125000
     38 HC5        225.0570   112.2120   120.3760 ha         1 QFW       0.126000
     39 HC8        229.0090   118.0440   121.8600 ha         1 QFW       0.122000
     40 HC11       228.4330   109.0720   119.5110 hc         1 QFW       0.044700
     41 HC12       229.8710   108.9400   120.5150 hc         1 QFW       0.044700
     42 HC15       228.1040   107.4230   121.3700 hc         1 QFW       0.037700
     43 HC14       228.4280   108.6900   122.5720 hc         1 QFW       0.037700
     44 HC13       226.9740   108.7800   121.5500 hc         1 QFW       0.037700
     45 H19        226.1830   117.7680   128.5300 ho         1 QFW       0.553000
     46 C20        224.4060   116.6110   127.7640 c          1 QFW       0.724600
@<TRIPOS>BOND
     1     1     3 1   
     2     1    19 1   
     3     1    28 1   
     4     2     3 ar  
     5     2    13 ar  
     6     2    29 1   
     7     3     4 ar  
     8     4    11 ar  
     9     4    30 1   
    10     5     6 ar  
    11     5    18 ar  
    12     5    19 1   
    13     6    14 ar  
    14     6    31 1   
    15     7    14 ar  
    16     7    15 ar  
    17     7    32 1   
    18     8    16 ar  
    19     8    17 ar  
    20     8    33 1   
    21     9    17 ar  
    22     9    18 ar  
    23     9    34 1   
    24    10    22 1   
    25    10    23 1   
    26    10    35 1   
    27    10    36 1   
    28    11    12 ar  
    29    11    27 1   
    30    12    13 ar  
    31    12    46 1   
    32    13    37 1   
    33    14    17 ar  
    34    15    16 ar  
    35    15    38 1   
    36    16    22 1   
    37    18    39 1   
    38    19    20 2   
    39    19    21 2   
    40    23    24 1   
    41    23    40 1   
    42    23    41 1   
    43    24    42 1   
    44    24    43 1   
    45    24    44 1   
    46    25    46 1   
    47    26    46 1   
    48    27    45 1   
@<TRIPOS>SUBSTRUCTURE
     1 QFW         1 TEMP              0 ****  ****    0 ROOT
