@<TRIPOS>MOLECULE
QFX
   34    37     1     0     0
SMALL
No Charge or Current Charge


@<TRIPOS>ATOM
      1 N1          26.7310    -8.6080    16.2010 nc         1 QFX      -0.519800
      2 N3          23.7670   -10.2780    15.0670 nc         1 QFX      -0.063000
      3 C4          25.0350   -10.2670    15.4290 cd         1 QFX      -0.147000
      4 C5          24.3460    -8.2360    15.5990 cd         1 QFX       0.400800
      5 C6          29.2140    -8.2930    17.3950 ca         1 QFX       0.101100
      6 C7          28.6330    -7.9820    18.6590 cp         1 QFX      -0.026000
      7 C8          29.0300    -6.7730    19.2830 ca         1 QFX      -0.091000
      8 C10         30.5540    -6.2640    17.4520 ca         1 QFX      -0.097000
      9 C13         26.4140    -8.3340    19.8230 ca         1 QFX      -0.092000
     10 C15         25.6950   -10.5400    20.5600 ca         1 QFX      -0.100000
     11 C17         27.8550   -10.2600    19.4740 ca         1 QFX      -0.092000
     12 C1          27.5660    -9.6550    16.2650 cd         1 QFX       0.556300
     13 C2          27.2400   -11.0180    15.9390 cd         1 QFX      -0.140000
     14 C3          25.9580   -11.2810    15.5180 cc         1 QFX      -0.008000
     15 N2          25.4770    -9.0110    15.7760 na         1 QFX       0.129000
     16 N4          23.3210    -8.9710    15.1770 nc         1 QFX      -0.350700
     17 O1          28.8390    -9.4410    16.7300 os         1 QFX      -0.359400
     18 C9          29.9800    -5.9240    18.6880 ca         1 QFX      -0.105000
     19 C11         30.1710    -7.4510    16.8060 ca         1 QFX      -0.100000
     20 C12         27.6280    -8.8680    19.3260 cp         1 QFX      -0.051000
     21 C14         25.4550    -9.1620    20.4320 ca         1 QFX      -0.113500
     22 C16         26.8970   -11.0880    20.0820 ca         1 QFX      -0.113500
     23 Cl1         24.2630    -6.5280    15.8970 cl         1 QFX      -0.012300
     24 H3          28.6040    -6.5000    20.2460 ha         1 QFX       0.123000
     25 H5          31.2920    -5.6080    16.9940 ha         1 QFX       0.122000
     26 H9          24.9530   -11.1810    21.0310 ha         1 QFX       0.116000
     27 H11         28.7830   -10.6960    19.1130 ha         1 QFX       0.119500
     28 H1          27.9810   -11.8010    16.0310 ha         1 QFX       0.152000
     29 H2          25.6710   -12.2980    15.2630 ha         1 QFX       0.157000
     30 H4          30.2740    -5.0030    19.1880 ha         1 QFX       0.121000
     31 H6          30.6070    -7.7140    15.8450 ha         1 QFX       0.131000
     32 H8          24.5250    -8.7350    20.8020 ha         1 QFX       0.116000
     33 H10         27.0860   -12.1550    20.1840 ha         1 QFX       0.116000
     34 H7          26.2110    -7.2710    19.7190 ha         1 QFX       0.119500
@<TRIPOS>BOND
     1     1    12 2   
     2     1    15 1   
     3     2     3 2   
     4     2    16 1   
     5     3    14 1   
     6     3    15 1   
     7     4    15 1   
     8     4    16 2   
     9     4    23 1   
    10     5     6 ar  
    11     5    17 1   
    12     5    19 ar  
    13     6     7 ar  
    14     6    20 1   
    15     7    18 ar  
    16     7    24 1   
    17     8    18 ar  
    18     8    19 ar  
    19     8    25 1   
    20     9    20 ar  
    21     9    21 ar  
    22     9    34 1   
    23    10    21 ar  
    24    10    22 ar  
    25    10    26 1   
    26    11    20 ar  
    27    11    22 ar  
    28    11    27 1   
    29    12    13 1   
    30    12    17 1   
    31    13    14 2   
    32    13    28 1   
    33    14    29 1   
    34    18    30 1   
    35    19    31 1   
    36    21    32 1   
    37    22    33 1   
@<TRIPOS>SUBSTRUCTURE
     1 QFX         1 TEMP              0 ****  ****    0 ROOT
