@<TRIPOS>MOLECULE
QFX
   34    37     1     0     0
SMALL
abcg2


@<TRIPOS>ATOM
      1 N1          26.7560    -8.6990    16.3260 nc         1 QFX      -0.519800
      2 N3          23.8130   -10.1830    15.1130 nc         1 QFX      -0.063000
      3 C4          25.0930   -10.2550    15.4400 cd         1 QFX      -0.147000
      4 C5          24.4250    -8.2220    15.8210 cd         1 QFX       0.400800
      5 C6          29.1690    -8.3050    17.4170 ca         1 QFX       0.101100
      6 C7          28.6020    -7.9920    18.6550 cp         1 QFX      -0.026000
      7 C8          28.9970    -6.7870    19.2450 ca         1 QFX      -0.091000
      8 C10         30.4830    -6.3030    17.4130 ca         1 QFX      -0.097000
      9 C13         26.3820    -8.3270    19.7360 ca         1 QFX      -0.092000
     10 C15         25.6660   -10.4930    20.5140 ca         1 QFX      -0.100000
     11 C17         27.8400   -10.2270    19.5050 ca         1 QFX      -0.092000
     12 C1          27.5910    -9.6940    16.3200 cd         1 QFX       0.556300
     13 C2          27.2930   -11.0230    15.8700 cd         1 QFX      -0.140000
     14 C3          26.0440   -11.3050    15.4250 cc         1 QFX      -0.008000
     15 N2          25.5220    -9.0230    15.8930 na         1 QFX       0.129000
     16 N4          23.4020    -8.8990    15.3570 nc         1 QFX      -0.350700
     17 O1          28.8460    -9.5040    16.7650 os         1 QFX      -0.359400
     18 C9          29.9280    -5.9520    18.6390 ca         1 QFX      -0.105000
     19 C11         30.0960    -7.4870    16.7960 ca         1 QFX      -0.100000
     20 C12         27.6010    -8.8630    19.3120 cp         1 QFX      -0.051000
     21 C14         25.4220    -9.1350    20.3320 ca         1 QFX      -0.113500
     22 C16         26.8800   -11.0340    20.1020 ca         1 QFX      -0.113500
     23 CL1         24.4410    -6.5920    16.2880 cl         1 QFX      -0.012300
     24 H3          28.5740    -6.5180    20.2040 ha         1 QFX       0.123000
     25 H5          31.2100    -5.6590    16.9350 ha         1 QFX       0.122000
     26 H9          24.9160   -11.1240    20.9740 ha         1 QFX       0.116000
     27 H11         28.7820   -10.6550    19.1880 ha         1 QFX       0.119500
     28 H1          28.0750   -11.7660    15.9060 ha         1 QFX       0.152000
     29 H2          25.7560   -12.2880    15.0790 ha         1 QFX       0.157000
     30 H4          30.2210    -5.0310    19.1260 ha         1 QFX       0.121000
     31 H6          30.4960    -7.7780    15.8340 ha         1 QFX       0.131000
     32 H8          24.4780    -8.7050    20.6450 ha         1 QFX       0.116000
     33 H10         27.0810   -12.0880    20.2460 ha         1 QFX       0.116000
     34 H7          26.1790    -7.2760    19.5740 ha         1 QFX       0.119500
@<TRIPOS>BOND
     1     1    12 2   
     2     1    15 1   
     3     2     3 2   
     4     2    16 1   
     5     3    14 1   
     6     3    15 1   
     7     4    15 1   
     8     4    16 2   
     9     4    23 1   
    10     5     6 ar  
    11     5    17 1   
    12     5    19 ar  
    13     6     7 ar  
    14     6    20 1   
    15     7    18 ar  
    16     7    24 1   
    17     8    18 ar  
    18     8    19 ar  
    19     8    25 1   
    20     9    20 ar  
    21     9    21 ar  
    22     9    34 1   
    23    10    21 ar  
    24    10    22 ar  
    25    10    26 1   
    26    11    20 ar  
    27    11    22 ar  
    28    11    27 1   
    29    12    13 1   
    30    12    17 1   
    31    13    14 2   
    32    13    28 1   
    33    14    29 1   
    34    18    30 1   
    35    19    31 1   
    36    21    32 1   
    37    22    33 1   
@<TRIPOS>SUBSTRUCTURE
     1 QFX         1 TEMP              0 ****  ****    0 ROOT
