@<TRIPOS>MOLECULE
QFZ
   13    13     1     0     0
SMALL
No Charge or Current Charge


@<TRIPOS>ATOM
      1 C01         -7.8630    33.5510   -12.5540 ca         1 QFZ       0.109100
      2 C02         -7.2400    32.6760   -11.6370 ca         1 QFZ       0.090000
      3 C03         -7.4240    31.2840   -11.7460 ca         1 QFZ       0.147000
      4 C04         -8.2310    30.7570   -12.7710 ca         1 QFZ       0.100000
      5 C05         -8.8540    31.6230   -13.6870 ca         1 QFZ       0.147000
      6 C06         -8.6720    33.0150   -13.5810 ca         1 QFZ       0.090000
      7 F07         -9.2770    33.8410   -14.4690 f          1 QFZ      -0.143500
      8 F08         -9.6310    31.1160   -14.6740 f          1 QFZ      -0.130000
      9 F09         -8.4070    29.4180   -12.8750 f          1 QFZ      -0.132000
     10 F10         -6.8230    30.4510   -10.8630 f          1 QFZ      -0.130000
     11 F11         -6.4620    33.1770   -10.6470 f          1 QFZ      -0.143500
     12 O12         -7.6860    34.9100   -12.4500 oh         1 QFZ      -0.496100
     13 H1          -7.0980    35.0960   -11.6840 ho         1 QFZ       0.490000
@<TRIPOS>BOND
     1     1     2 ar  
     2     1     6 ar  
     3     1    12 1   
     4     2     3 ar  
     5     2    11 1   
     6     3     4 ar  
     7     3    10 1   
     8     4     5 ar  
     9     4     9 1   
    10     5     6 ar  
    11     5     8 1   
    12     6     7 1   
    13    12    13 1   
@<TRIPOS>SUBSTRUCTURE
     1 QFZ         1 TEMP              0 ****  ****    0 ROOT
