@<TRIPOS>MOLECULE
QFZ
   13    13     1     0     0
SMALL
bcc


@<TRIPOS>ATOM
      1 C01         -7.8550    33.5390   -12.5340 ca         1 QFZ       0.109100
      2 C02         -7.2560    32.6510   -11.6490 ca         1 QFZ       0.054900
      3 C03         -7.4350    31.2850   -11.7600 ca         1 QFZ       0.111900
      4 C04         -8.2260    30.7720   -12.7680 ca         1 QFZ       0.064900
      5 C05         -8.8340    31.6380   -13.6610 ca         1 QFZ       0.111900
      6 C06         -8.6470    33.0010   -13.5420 ca         1 QFZ       0.054900
      7 F07         -9.2340    33.8200   -14.4120 f          1 QFZ      -0.108400
      8 F08         -9.5980    31.1550   -14.6330 f          1 QFZ      -0.094900
      9 F09         -8.4030    29.4600   -12.8820 f          1 QFZ      -0.096900
     10 F10         -6.8460    30.4670   -10.8960 f          1 QFZ      -0.094900
     11 F11         -6.4880    33.1330   -10.6690 f          1 QFZ      -0.108400
     12 O12         -7.7160    34.8660   -12.4760 oh         1 QFZ      -0.457100
     13 H1          -7.1300    35.1290   -11.7560 ho         1 QFZ       0.451000
@<TRIPOS>BOND
     1     1     2 ar  
     2     1     6 ar  
     3     1    12 1   
     4     2     3 ar  
     5     2    11 1   
     6     3     4 ar  
     7     3    10 1   
     8     4     5 ar  
     9     4     9 1   
    10     5     6 ar  
    11     5     8 1   
    12     6     7 1   
    13    12    13 1   
@<TRIPOS>SUBSTRUCTURE
     1 QFZ         1 TEMP              0 ****  ****    0 ROOT
