@<TRIPOS>MOLECULE
QG2
   68    71     1     0     0
SMALL
bcc


@<TRIPOS>ATOM
      1 C1         -19.5120    15.4730    57.9970 c6         1 QG2       0.330900
      2 C2         -18.6330    15.6950    56.7530 c6         1 QG2       0.110100
      3 C3         -18.2200    17.1570    56.5930 c6         1 QG2       0.146100
      4 C4         -19.2510    18.0620    57.2690 c6         1 QG2       0.110100
      5 C5         -19.2500    17.7460    58.7700 c6         1 QG2       0.002100
      6 C6         -20.4160    18.4450    59.5110 c          1 QG2       0.929600
      7 O7         -17.4550    14.9290    56.8310 oh         1 QG2      -0.584800
      8 O8         -18.0400    17.4070    55.2270 oh         1 QG2      -0.660800
      9 O9         -18.8880    19.4280    57.1750 os         1 QG2      -0.400600
     10 O10        -19.2590    16.3410    59.0330 os         1 QG2      -0.411600
     11 O11        -20.1080    19.4450    60.1890 o          1 QG2      -0.817300
     12 O12        -20.8550    15.5520    57.5500 os         1 QG2      -0.323900
     13 C13        -19.3410    20.1500    56.0740 c6         1 QG2       0.341900
     14 C14        -18.6340    21.5090    56.0720 c6         1 QG2       0.198500
     15 C15        -19.1170    22.3330    57.2630 c6         1 QG2       0.096100
     16 C16        -20.6340    22.4740    57.1940 c6         1 QG2       0.089100
     17 C17        -21.2820    21.0930    57.1320 c6         1 QG2       0.141100
     18 C18        -22.7690    21.2010    56.8690 c3         1 QG2       0.203400
     19 O19        -20.7280    20.3360    56.0700 os         1 QG2      -0.410600
     20 N20        -17.1870    21.4040    56.1340 n7         1 QG2      -0.802100
     21 O21        -18.5010    23.6050    57.2080 oh         1 QG2      -0.629800
     22 O22        -21.1430    23.1350    58.3270 oh         1 QG2      -0.579800
     23 O23        -23.3260    19.8970    56.9070 os         1 QG2      -0.526500
     24 S24        -16.3570    20.8250    54.7740 s6         1 QG2       1.361700
     25 S25        -24.9010    19.7400    56.4620 s6         1 QG2       1.512300
     26 O26        -25.1030    18.3100    56.6790 o          1 QG2      -0.732867
     27 O27        -24.9560    20.1600    55.0590 o          1 QG2      -0.732867
     28 O28        -25.6580    20.6120    57.3630 o          1 QG2      -0.732867
     29 O29        -16.2320    19.3630    54.9890 o          1 QG2      -0.717533
     30 O30        -15.0620    21.5070    54.8500 o          1 QG2      -0.717533
     31 O31        -17.1560    21.1380    53.5800 o          1 QG2      -0.717533
     32 C32        -21.8600    15.0860    58.3030 ca         1 QG2       0.285100
     33 C33        -23.1460    15.2930    57.7800 ca         1 QG2      -0.137000
     34 C34        -24.2460    14.7990    58.4340 ca         1 QG2      -0.040000
     35 C35        -24.1200    14.0810    59.6330 ca         1 QG2      -0.232800
     36 C36        -22.8320    13.9010    60.1350 ca         1 QG2       0.202100
     37 C37        -21.7020    14.3950    59.4960 ca         1 QG2      -0.255000
     38 C38        -25.2260    13.5260    60.3710 cc         1 QG2       0.097600
     39 C39        -24.9700    12.8580    61.5190 cd         1 QG2      -0.370200
     40 C40        -23.6310    12.6840    62.0250 c          1 QG2       0.762800
     41 O41        -22.6220    13.2260    61.2880 os         1 QG2      -0.338200
     42 C42        -26.6200    13.6930    59.8670 c3         1 QG2      -0.064900
     43 O43        -23.3220    12.1030    63.0370 o          1 QG2      -0.641500
     44 O44        -21.5460    17.9550    59.3480 o          1 QG2      -0.817300
     45 H1         -19.3180    14.4670    58.3880 h2         1 QG2       0.030700
     46 H2         -19.2280    15.4110    55.8760 h1         1 QG2       0.054700
     47 H3         -17.2750    17.2950    57.1430 h1         1 QG2       0.051700
     48 H4         -20.2480    17.9020    56.8420 h1         1 QG2       0.094700
     49 H5         -18.2990    18.1150    59.1720 h1         1 QG2       0.055700
     50 HO7        -17.6740    14.0060    56.6690 ho         1 QG2       0.371000
     51 HO8        -17.4050    18.1460    55.1210 ho         1 QG2       0.485000
     52 H13        -19.1470    19.6200    55.1390 h2         1 QG2       0.086700
     53 H14        -18.9620    22.0180    55.1540 h1         1 QG2       0.051700
     54 H15        -18.8520    21.8160    58.1940 h1         1 QG2       0.098700
     55 H16        -20.8850    23.0220    56.2710 h1         1 QG2       0.023700
     56 H17        -21.1150    20.5960    58.0950 h1         1 QG2       0.125700
     57 H181       -22.9300    21.6690    55.8910 h1         1 QG2       0.025700
     58 H18        -23.2230    21.8390    57.6310 h1         1 QG2       0.025700
     59 HN20       -16.7960    22.3090    56.3740 hn         1 QG2       0.384800
     60 HO21       -18.2780    23.8840    58.0990 ho         1 QG2       0.389000
     61 HO22       -20.8860    24.0610    58.2810 ho         1 QG2       0.372000
     62 H33        -23.2600    15.8490    56.8600 ha         1 QG2       0.188000
     63 H34        -25.2280    14.9710    58.0130 ha         1 QG2       0.137000
     64 H37        -20.7380    14.2290    59.9560 ha         1 QG2       0.158000
     65 H39        -25.7680    12.4260    62.1060 ha         1 QG2       0.129000
     66 H42        -27.3380    13.2170    60.5300 hc         1 QG2       0.046367
     67 H421       -26.8790    14.7500    59.7820 hc         1 QG2       0.046367
     68 H422       -26.7290    13.2570    58.8720 hc         1 QG2       0.046367
@<TRIPOS>BOND
     1     1     2 1   
     2     1    10 1   
     3     1    12 1   
     4     1    45 1   
     5     2     3 1   
     6     2     7 1   
     7     2    46 1   
     8     3     4 1   
     9     3     8 1   
    10     3    47 1   
    11     4     5 1   
    12     4     9 1   
    13     4    48 1   
    14     5     6 1   
    15     5    10 1   
    16     5    49 1   
    17     6    11 1   
    18     6    44 1   
    19     7    50 1   
    20     8    51 1   
    21     9    13 1   
    22    12    32 1   
    23    13    14 1   
    24    13    19 1   
    25    13    52 1   
    26    14    15 1   
    27    14    20 1   
    28    14    53 1   
    29    15    16 1   
    30    15    21 1   
    31    15    54 1   
    32    16    17 1   
    33    16    22 1   
    34    16    55 1   
    35    17    18 1   
    36    17    19 1   
    37    17    56 1   
    38    18    23 1   
    39    18    57 1   
    40    18    58 1   
    41    20    24 1   
    42    20    59 1   
    43    21    60 1   
    44    22    61 1   
    45    23    25 1   
    46    24    29 1   
    47    24    30 1   
    48    24    31 1   
    49    25    26 1   
    50    25    27 1   
    51    25    28 1   
    52    32    33 ar  
    53    32    37 ar  
    54    33    34 ar  
    55    33    62 1   
    56    34    35 ar  
    57    34    63 1   
    58    35    36 ar  
    59    35    38 1   
    60    36    37 ar  
    61    36    41 1   
    62    37    64 1   
    63    38    39 2   
    64    38    42 1   
    65    39    40 1   
    66    39    65 1   
    67    40    41 1   
    68    40    43 2   
    69    42    66 1   
    70    42    67 1   
    71    42    68 1   
@<TRIPOS>SUBSTRUCTURE
     1 QG2         1 TEMP              0 ****  ****    0 ROOT
