@<TRIPOS>MOLECULE
QG2
   68    71     1     0     0
SMALL
No Charge or Current Charge


@<TRIPOS>ATOM
      1 C1         -19.6800    15.4090    57.9150 c6         1 QG2       0.377300
      2 C2         -18.7910    15.6960    56.6510 c6         1 QG2       0.133300
      3 C3         -18.2390    17.1580    56.6630 c6         1 QG2       0.169300
      4 C4         -19.2700    18.1380    57.3200 c6         1 QG2       0.133300
      5 C5         -19.4410    17.7190    58.8170 c6         1 QG2       0.025300
      6 C6         -20.7060    18.3800    59.4750 c          1 QG2       0.719000
      7 O7         -17.6660    14.7900    56.5400 oh         1 QG2      -0.707000
      8 O8         -17.8110    17.5220    55.3350 oh         1 QG2      -0.783000
      9 O9         -18.8700    19.5330    57.2620 os         1 QG2      -0.447000
     10 O10        -19.2850    16.2630    59.0220 os         1 QG2      -0.458000
     11 O11        -20.4740    19.3790    60.1450 o          1 QG2      -0.712000
     12 O12        -21.0710    15.6110    57.5990 os         1 QG2      -0.347100
     13 C13        -19.1410    20.2500    56.0300 c6         1 QG2       0.388300
     14 C14        -18.4440    21.6660    56.0230 c6         1 QG2       0.198500
     15 C15        -19.0880    22.5480    57.1400 c6         1 QG2       0.119300
     16 C16        -20.6280    22.6290    56.9310 c6         1 QG2       0.112300
     17 C17        -21.2300    21.1910    56.9080 c6         1 QG2       0.164300
     18 C18        -22.7580    21.1950    56.6000 c3         1 QG2       0.226600
     19 O19        -20.5710    20.4030    55.8770 os         1 QG2      -0.457000
     20 N20        -16.9530    21.6400    56.1560 n7         1 QG2      -0.857300
     21 O21        -18.5240    23.8830    57.1710 oh         1 QG2      -0.692000
     22 O22        -21.2070    23.4430    57.9630 oh         1 QG2      -0.702000
     23 O23        -23.2840    19.8620    56.7190 os         1 QG2      -0.549700
     24 S24        -16.0550    20.8650    55.0200 s6         1 QG2       1.361700
     25 S25        -24.8850    19.6920    56.4040 s6         1 QG2       1.512300
     26 O26        -25.1220    18.2490    56.5470 o          1 QG2      -0.732867
     27 O27        -25.0430    20.1970    55.0320 o          1 QG2      -0.732867
     28 O28        -25.5440    20.5180    57.4260 o          1 QG2      -0.732867
     29 O29        -16.1560    19.4670    55.4440 o          1 QG2      -0.717533
     30 O30        -14.7560    21.4990    55.2300 o          1 QG2      -0.717533
     31 O31        -16.7370    21.2180    53.7760 o          1 QG2      -0.717533
     32 C32        -22.0730    15.0460    58.3640 ca         1 QG2       0.285100
     33 C33        -23.3970    15.2880    57.9750 ca         1 QG2      -0.119000
     34 C34        -24.4700    14.7310    58.6900 ca         1 QG2      -0.022000
     35 C35        -24.2310    13.9130    59.8160 ca         1 QG2      -0.232800
     36 C36        -22.8960    13.6780    60.2010 ca         1 QG2       0.202100
     37 C37        -21.8250    14.2320    59.4880 ca         1 QG2      -0.237000
     38 C38        -25.3450    13.3260    60.5700 cc         1 QG2       0.097600
     39 C39        -24.9660    12.5540    61.6450 cd         1 QG2      -0.420200
     40 C40        -23.5740    12.3080    62.0470 c          1 QG2       0.687300
     41 O41        -22.6140    12.8960    61.2840 os         1 QG2      -0.338200
     42 C42        -26.7930    13.5400    60.2090 c3         1 QG2      -0.064900
     43 O43        -23.2940    11.6120    63.0120 o          1 QG2      -0.566000
     44 O44        -21.6140    17.6400    59.8260 o          1 QG2      -0.712000
     45 H1         -19.5290    14.3550    58.1880 h2         1 QG2       0.030700
     46 H2         -19.4390    15.5820    55.7690 h1         1 QG2       0.054700
     47 H3         -17.3570    17.1660    57.3230 h1         1 QG2       0.051700
     48 H4         -20.2430    18.0270    56.8180 h1         1 QG2       0.094700
     49 H5         -18.5940    18.1710    59.3530 h1         1 QG2       0.055700
     50 HO7        -17.1190    15.1480    55.8030 ho         1 QG2       0.470000
     51 HO8        -17.1440    18.2810    55.4440 ho         1 QG2       0.584000
     52 H13        -18.7640    19.6860    55.1680 h2         1 QG2       0.086700
     53 H14        -18.6950    22.1360    55.0610 h1         1 QG2       0.051700
     54 H15        -18.9060    22.0450    58.1040 h1         1 QG2       0.098700
     55 H16        -20.8190    23.0940    55.9520 h1         1 QG2       0.023700
     56 H17        -21.0840    20.7180    57.8890 h1         1 QG2       0.125700
     57 H181       -22.9070    21.5950    55.5870 h1         1 QG2       0.025700
     58 H18        -23.2570    21.8690    57.3090 h1         1 QG2       0.025700
     59 HN20       -16.5910    22.5670    55.9750 hn         1 QG2       0.440000
     60 HO21       -17.6360    23.8000    57.5840 ho         1 QG2       0.428000
     61 HO22       -20.5650    24.1830    58.0820 ho         1 QG2       0.471000
     62 H33        -23.5920    15.9180    57.1120 ha         1 QG2       0.170000
     63 H34        -25.4820    14.9460    58.3570 ha         1 QG2       0.119000
     64 H37        -20.8180    14.0280    59.8310 ha         1 QG2       0.140000
     65 H39        -25.6980    12.0680    62.2770 ha         1 QG2       0.179000
     66 H42        -27.4610    13.0100    60.8990 hc         1 QG2       0.046367
     67 H421       -27.0520    14.6040    60.2490 hc         1 QG2       0.046367
     68 H422       -27.0020    13.1720    59.1980 hc         1 QG2       0.046367
@<TRIPOS>BOND
     1     1     2 1   
     2     1    10 1   
     3     1    12 1   
     4     1    45 1   
     5     2     3 1   
     6     2     7 1   
     7     2    46 1   
     8     3     4 1   
     9     3     8 1   
    10     3    47 1   
    11     4     5 1   
    12     4     9 1   
    13     4    48 1   
    14     5     6 1   
    15     5    10 1   
    16     5    49 1   
    17     6    11 1   
    18     6    44 1   
    19     7    50 1   
    20     8    51 1   
    21     9    13 1   
    22    12    32 1   
    23    13    14 1   
    24    13    19 1   
    25    13    52 1   
    26    14    15 1   
    27    14    20 1   
    28    14    53 1   
    29    15    16 1   
    30    15    21 1   
    31    15    54 1   
    32    16    17 1   
    33    16    22 1   
    34    16    55 1   
    35    17    18 1   
    36    17    19 1   
    37    17    56 1   
    38    18    23 1   
    39    18    57 1   
    40    18    58 1   
    41    20    24 1   
    42    20    59 1   
    43    21    60 1   
    44    22    61 1   
    45    23    25 1   
    46    24    29 1   
    47    24    30 1   
    48    24    31 1   
    49    25    26 1   
    50    25    27 1   
    51    25    28 1   
    52    32    33 ar  
    53    32    37 ar  
    54    33    34 ar  
    55    33    62 1   
    56    34    35 ar  
    57    34    63 1   
    58    35    36 ar  
    59    35    38 1   
    60    36    37 ar  
    61    36    41 1   
    62    37    64 1   
    63    38    39 2   
    64    38    42 1   
    65    39    40 1   
    66    39    65 1   
    67    40    41 1   
    68    40    43 2   
    69    42    66 1   
    70    42    67 1   
    71    42    68 1   
@<TRIPOS>SUBSTRUCTURE
     1 QG2         1 TEMP              0 ****  ****    0 ROOT
