@<TRIPOS>MOLECULE
QG3
   34    36     1     0     0
SMALL
No Charge or Current Charge


@<TRIPOS>ATOM
      1 N1         -16.9260     4.0000    25.8840 nb         1 QG3      -0.655000
      2 C4         -22.3260     4.3500    29.6320 ca         1 QG3      -0.019300
      3 C5         -22.2870     5.3150    28.4530 c3         1 QG3      -0.113100
      4 C6         -20.8430     5.7090    28.1280 c          1 QG3       0.598100
      5 C7         -18.9870     5.1580    26.4800 ca         1 QG3      -0.091000
      6 C8         -18.1810     4.0030    26.3880 ca         1 QG3       0.345900
      7 C10        -17.1580     6.3800    25.4610 ca         1 QG3      -0.096000
      8 C13        -18.6460     8.7640    25.4580 ca         1 QG3      -0.085000
      9 C15        -18.4710     6.3820    25.9840 ca         1 QG3      -0.011000
     10 O          -20.2290     6.5380    28.7910 o          1 QG3      -0.565100
     11 C3         -22.2770     2.9590    29.4170 ca         1 QG3      -0.151000
     12 C2         -22.3090     2.0750    30.5080 ca         1 QG3       0.195000
     13 F1         -22.2620     0.7420    30.2930 f          1 QG3      -0.175500
     14 C1         -22.3870     2.5650    31.8190 ca         1 QG3      -0.184000
     15 C16        -22.4040     4.8400    30.9500 ca         1 QG3      -0.151000
     16 C          -22.4340     3.9480    32.0350 ca         1 QG3       0.195000
     17 F          -22.5080     4.4280    33.2950 f          1 QG3      -0.175500
     18 N          -20.2810     5.0320    27.0560 ns         1 QG3      -0.175000
     19 C14        -19.2160     7.5830    25.9630 ca         1 QG3      -0.105000
     20 C12        -17.3320     8.7580    24.9610 ca         1 QG3      -0.111000
     21 C11        -16.5890     7.5670    24.9580 ca         1 QG3      -0.077000
     22 C9         -16.4280     5.1750    25.4380 ca         1 QG3       0.366900
     23 H1         -22.8510     6.2210    28.7010 hc         1 QG3       0.068200
     24 H2         -22.7440     4.8320    27.5800 hc         1 QG3       0.068200
     25 H3         -18.5520     3.0440    26.7480 h4         1 QG3       0.030100
     26 H4         -19.2250     9.6850    25.4480 ha         1 QG3       0.116000
     27 H5         -22.2170     2.5570    28.4090 ha         1 QG3       0.136500
     28 H6         -22.4100     1.8780    32.6600 ha         1 QG3       0.152000
     29 H7         -22.4380     5.9100    31.1380 ha         1 QG3       0.136500
     30 H8         -20.8710     4.3240    26.6350 hn         1 QG3       0.155000
     31 H9         -20.2400     7.6160    26.3230 ha         1 QG3       0.115000
     32 H10        -16.8940     9.6740    24.5710 ha         1 QG3       0.119000
     33 H11        -15.5760     7.5660    24.5600 ha         1 QG3       0.120000
     34 H12        -15.4150     5.1460    25.0380 h4         1 QG3       0.022100
@<TRIPOS>BOND
     1     1     6 ar  
     2     1    22 ar  
     3     2     3 1   
     4     2    11 ar  
     5     2    15 ar  
     6     3     4 1   
     7     3    23 1   
     8     3    24 1   
     9     4    10 2   
    10     4    18 1   
    11     5     6 ar  
    12     5     9 ar  
    13     5    18 1   
    14     6    25 1   
    15     7     9 ar  
    16     7    21 ar  
    17     7    22 ar  
    18     8    19 ar  
    19     8    20 ar  
    20     8    26 1   
    21     9    19 ar  
    22    11    12 ar  
    23    11    27 1   
    24    12    13 1   
    25    12    14 ar  
    26    14    16 ar  
    27    14    28 1   
    28    15    16 ar  
    29    15    29 1   
    30    16    17 1   
    31    18    30 1   
    32    19    31 1   
    33    20    21 ar  
    34    20    32 1   
    35    21    33 1   
    36    22    34 1   
@<TRIPOS>SUBSTRUCTURE
     1 QG3         1 TEMP              0 ****  ****    0 ROOT
