@<TRIPOS>MOLECULE
QG3
   34    36     1     0     0
SMALL
abcg2


@<TRIPOS>ATOM
      1 N1         -16.6980     4.2180    25.8370 nb         1 QG3      -0.655000
      2 C4         -22.2770     4.1840    29.6940 ca         1 QG3      -0.019300
      3 C5         -21.9920     4.9050    28.4070 c3         1 QG3      -0.113100
      4 C6         -20.4980     4.9940    28.1090 c          1 QG3       0.598100
      5 C7         -18.8650     5.1480    26.3020 ca         1 QG3      -0.091000
      6 C8         -17.9760     4.1060    26.2780 ca         1 QG3       0.345900
      7 C10        -17.1190     6.5460    25.3780 ca         1 QG3      -0.096000
      8 C13        -18.8060     8.7700    25.3890 ca         1 QG3      -0.085000
      9 C15        -18.4570     6.4280    25.8490 ca         1 QG3      -0.011000
     10 O          -19.6560     5.1290    28.9880 o          1 QG3      -0.565100
     11 C3         -22.3640     2.7910    29.7050 ca         1 QG3      -0.151000
     12 C2         -22.5930     2.1460    30.9060 ca         1 QG3       0.195000
     13 F1         -22.6750     0.7940    30.9130 f          1 QG3      -0.175500
     14 C1         -22.7450     2.8150    32.1080 ca         1 QG3      -0.184000
     15 C16        -22.4250     4.8940    30.8840 ca         1 QG3      -0.151000
     16 C          -22.6530     4.1940    32.0540 ca         1 QG3       0.195000
     17 F          -22.7950     4.8900    33.2080 f          1 QG3      -0.175500
     18 N          -20.1860     4.9440    26.7900 ns         1 QG3      -0.175000
     19 C14        -19.2900     7.5700    25.8460 ca         1 QG3      -0.105000
     20 C12        -17.4800     8.8880    24.9170 ca         1 QG3      -0.111000
     21 C11        -16.6500     7.7960    24.9120 ca         1 QG3      -0.077000
     22 C9         -16.2990     5.3930    25.4050 ca         1 QG3       0.366900
     23 H1         -22.3570     5.9340    28.4620 hc         1 QG3       0.068200
     24 H2         -22.5060     4.4210    27.5760 hc         1 QG3       0.068200
     25 H3         -18.2870     3.1280    26.6280 h4         1 QG3       0.030100
     26 H4         -19.4470     9.6430    25.3900 ha         1 QG3       0.116000
     27 H5         -22.2550     2.2150    28.7960 ha         1 QG3       0.136500
     28 H6         -22.9280     2.2900    33.0350 ha         1 QG3       0.152000
     29 H7         -22.3630     5.9730    30.9040 ha         1 QG3       0.136500
     30 H8         -20.9390     4.8950    26.1190 hn         1 QG3       0.155000
     31 H9         -20.3060     7.4880    26.2070 ha         1 QG3       0.115000
     32 H10        -17.1230     9.8460    24.5620 ha         1 QG3       0.119000
     33 H11        -15.6300     7.8740    24.5560 ha         1 QG3       0.120000
     34 H12        -15.2750     5.4720    25.0510 h4         1 QG3       0.022100
@<TRIPOS>BOND
     1     1     6 ar  
     2     1    22 ar  
     3     2     3 1   
     4     2    11 ar  
     5     2    15 ar  
     6     3     4 1   
     7     3    23 1   
     8     3    24 1   
     9     4    10 2   
    10     4    18 1   
    11     5     6 ar  
    12     5     9 ar  
    13     5    18 1   
    14     6    25 1   
    15     7     9 ar  
    16     7    21 ar  
    17     7    22 ar  
    18     8    19 ar  
    19     8    20 ar  
    20     8    26 1   
    21     9    19 ar  
    22    11    12 ar  
    23    11    27 1   
    24    12    13 1   
    25    12    14 ar  
    26    14    16 ar  
    27    14    28 1   
    28    15    16 ar  
    29    15    29 1   
    30    16    17 1   
    31    18    30 1   
    32    19    31 1   
    33    20    21 ar  
    34    20    32 1   
    35    21    33 1   
    36    22    34 1   
@<TRIPOS>SUBSTRUCTURE
     1 QG3         1 TEMP              0 ****  ****    0 ROOT
