@<TRIPOS>MOLECULE
QG5
   40    43     1     0     0
SMALL
abcg2


@<TRIPOS>ATOM
      1 C10         71.7250    11.7000     8.5960 cc         1 QG5       0.353900
      2 N11         72.8940    11.9160     9.1810 nv         1 QG5      -0.959000
      3 C12         70.9120    10.5560     8.6950 cd         1 QG5      -0.491000
      4 C13         71.2450     9.3890     9.4890 c          1 QG5       0.664300
      5 O15         72.2970     9.3200    10.1540 o          1 QG5      -0.692100
      6 N17         68.7140    10.0720     7.6050 nb         1 QG5      -0.667000
      7 C18         67.8010    10.6370     6.7520 ca         1 QG5       0.238000
      8 C19         66.6380     9.9160     6.4070 ca         1 QG5      -0.085000
      9 C20         65.7040    10.4570     5.5530 ca         1 QG5      -0.101000
     10 C21         65.8930    11.7410     5.0090 ca         1 QG5      -0.112000
     11 C22         67.0180    12.4690     5.3260 ca         1 QG5      -0.073000
     12 C23         67.9900    11.9410     6.1960 ca         1 QG5       0.219000
     13 C25         69.9390    12.1200     7.2950 ca         1 QG5       0.377500
     14 C02         72.3010    14.0760     6.1700 ca         1 QG5      -0.082300
     15 C03         72.8300    15.3390     5.8980 ca         1 QG5      -0.075000
     16 C04         72.7740    16.3750     6.8190 ca         1 QG5      -0.125000
     17 C05         72.1740    16.1700     8.0590 ca         1 QG5       0.136100
     18 C07         71.6270    14.9270     8.3580 ca         1 QG5      -0.195000
     19 C08         71.6980    13.9050     7.4180 ca         1 QG5       0.026800
     20 C16         69.7730    10.8010     7.8750 ca         1 QG5       0.422800
     21 N09         71.1390    12.6350     7.7610 na         1 QG5      -0.185200
     22 N14         70.3430     8.3830     9.4620 nt         1 QG5      -0.597000
     23 N24         69.1060    12.6930     6.4930 nb         1 QG5      -0.640000
     24 H1          73.2560    11.1720     9.7620 hn         1 QG5       0.529500
     25 H2          73.4160    12.7650     9.0350 hn         1 QG5       0.529500
     26 H3          66.5050     8.9300     6.8320 ha         1 QG5       0.128000
     27 H4          64.8170     9.8910     5.2970 ha         1 QG5       0.117000
     28 H5          65.1510    12.1560     4.3390 ha         1 QG5       0.118000
     29 H6          67.1810    13.4580     4.9170 ha         1 QG5       0.129000
     30 H7          72.7620    12.0430     5.6260 hc         1 QG5       0.052033
     31 H8          71.3920    12.7240     4.7600 hc         1 QG5       0.052033
     32 H9          73.0330    13.2300     4.3430 hc         1 QG5       0.052033
     33 H10         73.3060    15.5110     4.9400 ha         1 QG5       0.124000
     34 H11         73.1970    17.3440     6.5880 ha         1 QG5       0.136000
     35 H12         71.1480    14.7490     9.3130 ha         1 QG5       0.130000
     36 H13         70.5210     7.5430     9.9870 hn         1 QG5       0.327500
     37 H14         69.5010     8.4660     8.9080 hn         1 QG5       0.327500
     38 H15         71.7010    16.9460     9.7540 ho         1 QG5       0.467000
     39 O06         72.1430    17.2130     8.9370 oh         1 QG5      -0.532100
     40 C01         72.3780    12.9570     5.1700 c3         1 QG5      -0.046800
@<TRIPOS>BOND
     1     1     2 1   
     2     1     3 2   
     3     1    21 1   
     4     2    24 1   
     5     2    25 1   
     6     3     4 1   
     7     3    20 1   
     8     4     5 2   
     9     4    22 1   
    10     6     7 ar  
    11     6    20 ar  
    12     7     8 ar  
    13     7    12 ar  
    14     8     9 ar  
    15     8    26 1   
    16     9    10 ar  
    17     9    27 1   
    18    10    11 ar  
    19    10    28 1   
    20    11    12 ar  
    21    11    29 1   
    22    12    23 ar  
    23    13    20 ar  
    24    13    21 1   
    25    13    23 ar  
    26    14    15 ar  
    27    14    19 ar  
    28    14    40 1   
    29    15    16 ar  
    30    15    33 1   
    31    16    17 ar  
    32    16    34 1   
    33    17    18 ar  
    34    17    39 1   
    35    18    19 ar  
    36    18    35 1   
    37    19    21 1   
    38    22    36 1   
    39    22    37 1   
    40    30    40 1   
    41    31    40 1   
    42    32    40 1   
    43    38    39 1   
@<TRIPOS>SUBSTRUCTURE
     1 QG5         1 TEMP              0 ****  ****    0 ROOT
