@<TRIPOS>MOLECULE
QG5
   40    43     1     0     0
SMALL
No Charge or Current Charge


@<TRIPOS>ATOM
      1 C10         71.7710    11.7120     8.5930 cc         1 QG5       0.353900
      2 N11         72.9640    11.9240     9.1860 nv         1 QG5      -0.959000
      3 C12         70.9360    10.6240     8.6340 cd         1 QG5      -0.491000
      4 C13         71.2270     9.3960     9.3790 c          1 QG5       0.664300
      5 O15         72.2420     9.2140    10.0280 o          1 QG5      -0.692100
      6 N17         68.7110    10.0990     7.6020 nb         1 QG5      -0.667000
      7 C18         67.7610    10.6420     6.7870 ca         1 QG5       0.238000
      8 C19         66.6090     9.8930     6.4850 ca         1 QG5      -0.085000
      9 C20         65.6050    10.4120     5.6500 ca         1 QG5      -0.101000
     10 C21         65.7420    11.6960     5.1030 ca         1 QG5      -0.112000
     11 C22         66.8830    12.4640     5.3890 ca         1 QG5      -0.073000
     12 C23         67.9030    11.9670     6.2230 ca         1 QG5       0.219000
     13 C25         69.9270    12.1850     7.2880 ca         1 QG5       0.377500
     14 C02         72.4450    14.0560     6.2460 ca         1 QG5      -0.082300
     15 C03         72.9980    15.3190     5.9550 ca         1 QG5      -0.075000
     16 C04         72.8170    16.3950     6.8410 ca         1 QG5      -0.125000
     17 C05         72.0850    16.2170     8.0230 ca         1 QG5       0.136100
     18 C07         71.5300    14.9640     8.3230 ca         1 QG5      -0.195000
     19 C08         71.7050    13.8820     7.4400 ca         1 QG5       0.026800
     20 C16         69.7720    10.9070     7.8230 ca         1 QG5       0.422800
     21 N09         71.1420    12.6480     7.7630 na         1 QG5      -0.185200
     22 N14         70.2960     8.4390     9.3110 nt         1 QG5      -0.597000
     23 N24         68.9950    12.7470     6.4750 nb         1 QG5      -0.640000
     24 H1          73.4070    11.1290     9.6450 hn         1 QG5       0.529500
     25 H2          73.5650    12.6760     8.8630 hn         1 QG5       0.529500
     26 H3          66.4940     8.8970     6.9040 ha         1 QG5       0.128000
     27 H4          64.7210     9.8170     5.4280 ha         1 QG5       0.117000
     28 H5          64.9650    12.0980     4.4560 ha         1 QG5       0.118000
     29 H6          66.9810    13.4580     4.9610 ha         1 QG5       0.129000
     30 H7          73.1030    12.0350     5.7670 hc         1 QG5       0.052033
     31 H8          71.7000    12.5800     4.8310 hc         1 QG5       0.052033
     32 H9          73.3160    13.1810     4.4400 hc         1 QG5       0.052033
     33 H10         73.5680    15.4710     5.0410 ha         1 QG5       0.124000
     34 H11         73.2460    17.3670     6.6100 ha         1 QG5       0.136000
     35 H12         70.9610    14.8230     9.2380 ha         1 QG5       0.130000
     36 H13         70.4360     7.5690     9.7990 hn         1 QG5       0.327500
     37 H14         69.4650     8.6120     8.7620 hn         1 QG5       0.327500
     38 H15         71.3800    16.9610     9.6410 ho         1 QG5       0.467000
     39 O06         71.9150    17.2650     8.8770 oh         1 QG5      -0.532100
     40 C01         72.6530    12.9010     5.2680 c3         1 QG5      -0.046800
@<TRIPOS>BOND
     1     1     2 1   
     2     1     3 2   
     3     1    21 1   
     4     2    24 1   
     5     2    25 1   
     6     3     4 1   
     7     3    20 1   
     8     4     5 2   
     9     4    22 1   
    10     6     7 ar  
    11     6    20 ar  
    12     7     8 ar  
    13     7    12 ar  
    14     8     9 ar  
    15     8    26 1   
    16     9    10 ar  
    17     9    27 1   
    18    10    11 ar  
    19    10    28 1   
    20    11    12 ar  
    21    11    29 1   
    22    12    23 ar  
    23    13    20 ar  
    24    13    21 1   
    25    13    23 ar  
    26    14    15 ar  
    27    14    19 ar  
    28    14    40 1   
    29    15    16 ar  
    30    15    33 1   
    31    16    17 ar  
    32    16    34 1   
    33    17    18 ar  
    34    17    39 1   
    35    18    19 ar  
    36    18    35 1   
    37    19    21 1   
    38    22    36 1   
    39    22    37 1   
    40    30    40 1   
    41    31    40 1   
    42    32    40 1   
    43    38    39 1   
@<TRIPOS>SUBSTRUCTURE
     1 QG5         1 TEMP              0 ****  ****    0 ROOT
