@<TRIPOS>MOLECULE
QG6
   47    47     1     0     0
SMALL
No Charge or Current Charge


@<TRIPOS>ATOM
      1 C13          5.6230    10.3230    -4.1760 c3         1 QG6      -0.074400
      2 C16         10.4050     1.6350    -1.9730 c6         1 QG6      -0.062400
      3 C17          9.8530     1.0590    -0.6350 c6         1 QG6      -0.066400
      4 C18          8.2980     1.0170    -0.5660 c6         1 QG6      -0.073400
      5 C19          7.6630     0.7770    -1.9570 c6         1 QG6      -0.065400
      6 C14          4.1160    10.3670    -4.4930 c3         1 QG6      -0.088100
      7 C10          7.7400     8.7880    -3.9930 c3         1 QG6      -0.057700
      8 C11          8.2050     9.3510    -2.6240 c3         1 QG6      -0.084100
      9 C12          6.1980     8.8850    -4.1760 c3         1 QG6      -0.076400
     10 C02          7.8510     1.4640    -4.4380 c          1 QG6       0.705000
     11 C03          7.9960     1.9290    -2.9630 c6         1 QG6      -0.175700
     12 C04          9.3890     2.5860    -2.6550 c6         1 QG6      -0.093700
     13 C05          9.9740     3.4610    -3.7900 c          1 QG6       0.615100
     14 C07         10.1910     5.7030    -4.6510 c3         1 QG6       0.167600
     15 C09          8.2170     7.3240    -4.2190 c3         1 QG6      -0.077400
     16 O01          7.0190     2.0280    -5.1320 o          1 QG6      -0.728000
     17 O06          9.7070     4.7990    -3.6430 os         1 QG6      -0.454100
     18 O15         10.6080     2.9970    -4.7300 o          1 QG6      -0.497000
     19 O20          8.5420     0.5360    -4.8320 o          1 QG6      -0.728000
     20 H131         6.1600    10.9300    -4.9160 hc         1 QG6       0.029700
     21 H132         5.7820    10.7900    -3.1980 hc         1 QG6       0.029700
     22 H161        10.6410     0.8110    -2.6600 hc         1 QG6       0.054200
     23 H162        11.3530     2.1580    -1.7860 hc         1 QG6       0.054200
     24 H172        10.2570     0.0470    -0.4910 hc         1 QG6       0.018700
     25 H171        10.2290     1.6560     0.2080 hc         1 QG6       0.018700
     26 H182         7.9200     1.9640    -0.1550 hc         1 QG6       0.017200
     27 H181         7.9800     0.2330     0.1350 hc         1 QG6       0.017200
     28 H192         6.5740     0.6710    -1.8630 hc         1 QG6       0.046700
     29 H191         8.0290    -0.1850    -2.3420 hc         1 QG6       0.046700
     30 H141         3.7520    11.4010    -4.4770 hc         1 QG6       0.028033
     31 H143         3.9150     9.9480    -5.4860 hc         1 QG6       0.028033
     32 H142         3.5470     9.7920    -3.7520 hc         1 QG6       0.028033
     33 H101         8.2000     9.4050    -4.7760 hc         1 QG6       0.028700
     34 H113         9.2970     9.3230    -2.5320 hc         1 QG6       0.026367
     35 H112         7.9080    10.3980    -2.5020 hc         1 QG6       0.026367
     36 H111         7.7750     8.7720    -1.7980 hc         1 QG6       0.026367
     37 H121         5.7020     8.3010    -3.3900 hc         1 QG6       0.046700
     38 H122         5.9270     8.4130    -5.1290 hc         1 QG6       0.046700
     39 H031         7.2470     2.7220    -2.8200 hc         1 QG6       0.040700
     40 H041         9.1410     3.3310    -1.8850 hc         1 QG6       0.035700
     41 H071        11.2870     5.6630    -4.7130 h1         1 QG6       0.047200
     42 H072         9.7800     5.4490    -5.6370 h1         1 QG6       0.047200
     43 H082        10.1950     7.3740    -3.2870 hc         1 QG6       0.030200
     44 H081        10.1850     7.8340    -4.9880 hc         1 QG6       0.030200
     45 H092         7.7940     6.6840    -3.4350 hc         1 QG6       0.066700
     46 H091         7.8040     6.9630    -5.1700 hc         1 QG6       0.066700
     47 C08          9.7560     7.1320    -4.2620 c3         1 QG6      -0.067400
@<TRIPOS>BOND
     1     1     6 1   
     2     1     9 1   
     3     1    20 1   
     4     1    21 1   
     5     2     3 1   
     6     2    12 1   
     7     2    22 1   
     8     2    23 1   
     9     3     4 1   
    10     3    24 1   
    11     3    25 1   
    12     4     5 1   
    13     4    26 1   
    14     4    27 1   
    15     5    11 1   
    16     5    28 1   
    17     5    29 1   
    18     6    30 1   
    19     6    31 1   
    20     6    32 1   
    21     7     8 1   
    22     7     9 1   
    23     7    15 1   
    24     7    33 1   
    25     8    34 1   
    26     8    35 1   
    27     8    36 1   
    28     9    37 1   
    29     9    38 1   
    30    10    11 1   
    31    10    16 1   
    32    10    19 1   
    33    11    12 1   
    34    11    39 1   
    35    12    13 1   
    36    12    40 1   
    37    13    17 1   
    38    13    18 2   
    39    14    17 1   
    40    14    41 1   
    41    14    42 1   
    42    14    47 1   
    43    15    45 1   
    44    15    46 1   
    45    15    47 1   
    46    43    47 1   
    47    44    47 1   
@<TRIPOS>SUBSTRUCTURE
     1 QG6         1 TEMP              0 ****  ****    0 ROOT
