@<TRIPOS>MOLECULE
QG6
   47    47     1     0     0
SMALL
abcg2


@<TRIPOS>ATOM
      1 C13          5.5610    10.0270    -4.2950 c3         1 QG6      -0.074400
      2 C16         10.3020     1.4100    -2.2750 c6         1 QG6      -0.062400
      3 C17          9.8630     0.7750    -0.9400 c6         1 QG6      -0.066400
      4 C18          8.4140     1.1470    -0.5710 c6         1 QG6      -0.073400
      5 C19          7.5660     1.3170    -1.8290 c6         1 QG6      -0.065400
      6 C14          4.0910     9.9860    -4.7050 c3         1 QG6      -0.088100
      7 C10          7.7100     8.6270    -3.9700 c3         1 QG6      -0.057700
      8 C11          8.0020     9.1170    -2.5490 c3         1 QG6      -0.084100
      9 C12          6.2060     8.6420    -4.2750 c3         1 QG6      -0.076400
     10 C02          7.6890     2.3090    -4.1980 c          1 QG6       0.705000
     11 C03          8.0360     2.4990    -2.6980 c6         1 QG6      -0.175700
     12 C04          9.5730     2.7350    -2.4890 c6         1 QG6      -0.093700
     13 C05         10.1560     3.5530    -3.6140 c          1 QG6       0.615100
     14 C07         10.3380     5.7590    -4.4990 c3         1 QG6       0.167600
     15 C09          8.2800     7.2230    -4.2120 c3         1 QG6      -0.077400
     16 O01          7.3340     3.3450    -4.8220 o          1 QG6      -0.728000
     17 O06          9.9230     4.8600    -3.4410 os         1 QG6      -0.454100
     18 O15         10.7610     3.1080    -4.5670 o          1 QG6      -0.497000
     19 O20          7.8080     1.1610    -4.6940 o          1 QG6      -0.728000
     20 H131         6.1170    10.6680    -4.9890 hc         1 QG6       0.029700
     21 H132         5.6450    10.4950    -3.3110 hc         1 QG6       0.029700
     22 H161        10.0730     0.7460    -3.1090 hc         1 QG6       0.054200
     23 H162        11.3820     1.5650    -2.2820 hc         1 QG6       0.054200
     24 H172         9.9550    -0.3110    -1.0150 hc         1 QG6       0.018700
     25 H171        10.5360     1.0930    -0.1400 hc         1 QG6       0.018700
     26 H182         8.4010     2.0780     0.0050 hc         1 QG6       0.017200
     27 H181         7.9850     0.3790     0.0760 hc         1 QG6       0.017200
     28 H192         6.5140     1.4610    -1.5720 hc         1 QG6       0.046700
     29 H191         7.6250     0.4060    -2.4280 hc         1 QG6       0.046700
     30 H141         3.6510    10.9860    -4.7140 hc         1 QG6       0.028033
     31 H143         3.9730     9.5600    -5.7060 hc         1 QG6       0.028033
     32 H142         3.5090     9.3710    -4.0130 hc         1 QG6       0.028033
     33 H101         8.1980     9.3120    -4.6750 hc         1 QG6       0.028700
     34 H113         9.0730     9.1390    -2.3410 hc         1 QG6       0.026367
     35 H112         7.6180    10.1250    -2.3840 hc         1 QG6       0.026367
     36 H111         7.5320     8.4540    -1.8160 hc         1 QG6       0.026367
     37 H121         5.6890     8.0100    -3.5420 hc         1 QG6       0.046700
     38 H122         6.0450     8.1710    -5.2520 hc         1 QG6       0.046700
     39 H031         7.5340     3.4110    -2.3760 hc         1 QG6       0.040700
     40 H041         9.6790     3.3420    -1.5870 hc         1 QG6       0.035700
     41 H071        11.4270     5.7490    -4.5530 h1         1 QG6       0.047200
     42 H072         9.9400     5.3850    -5.4440 h1         1 QG6       0.047200
     43 H082        10.1900     7.4390    -3.1950 hc         1 QG6       0.030200
     44 H081        10.2290     7.8320    -4.9050 hc         1 QG6       0.030200
     45 H092         7.8540     6.5350    -3.4760 hc         1 QG6       0.066700
     46 H091         7.9430     6.8730    -5.1930 hc         1 QG6       0.066700
     47 C08          9.8050     7.1380    -4.1720 c3         1 QG6      -0.067400
@<TRIPOS>BOND
     1     1     6 1   
     2     1     9 1   
     3     1    20 1   
     4     1    21 1   
     5     2     3 1   
     6     2    12 1   
     7     2    22 1   
     8     2    23 1   
     9     3     4 1   
    10     3    24 1   
    11     3    25 1   
    12     4     5 1   
    13     4    26 1   
    14     4    27 1   
    15     5    11 1   
    16     5    28 1   
    17     5    29 1   
    18     6    30 1   
    19     6    31 1   
    20     6    32 1   
    21     7     8 1   
    22     7     9 1   
    23     7    15 1   
    24     7    33 1   
    25     8    34 1   
    26     8    35 1   
    27     8    36 1   
    28     9    37 1   
    29     9    38 1   
    30    10    11 1   
    31    10    16 1   
    32    10    19 1   
    33    11    12 1   
    34    11    39 1   
    35    12    13 1   
    36    12    40 1   
    37    13    17 1   
    38    13    18 2   
    39    14    17 1   
    40    14    41 1   
    41    14    42 1   
    42    14    47 1   
    43    15    45 1   
    44    15    46 1   
    45    15    47 1   
    46    43    47 1   
    47    44    47 1   
@<TRIPOS>SUBSTRUCTURE
     1 QG6         1 TEMP              0 ****  ****    0 ROOT
