@<TRIPOS>MOLECULE
QG7
   65    68     1     0     0
SMALL
abcg2


@<TRIPOS>ATOM
      1 C10         18.1740    29.3180   -10.5010 c5         1 QG7       0.097700
      2 C15         25.9840    25.1320   -10.6500 ca         1 QG7      -0.161500
      3 C17         23.8130    28.1170   -14.2550 c3         1 QG7       0.124500
      4 C11         25.0050    26.0430   -14.6750 c3         1 QG7       0.124500
      5 C12         25.3720    25.6780   -13.2560 ca         1 QG7       0.327800
      6 C14         25.3320    24.1640   -11.3970 ca         1 QG7      -0.076500
      7 O2          17.5410    28.6500    -7.1050 o          1 QG7      -0.575000
      8 C9          17.9590    29.0410    -8.1840 c          1 QG7       0.613000
      9 N1          18.9290    29.9680    -8.3870 ns         1 QG7      -0.521900
     10 N2          17.5290    28.6350    -9.4100 ns         1 QG7      -0.513900
     11 C8          19.2420    30.1890    -9.7740 c5         1 QG7       0.102700
     12 C7          20.6380    29.6990   -10.1710 c5         1 QG7       0.027600
     13 S1          20.4620    27.9550   -10.6280 ss         1 QG7      -0.414000
     14 C6          18.8940    28.3640   -11.4660 c5         1 QG7       0.072300
     15 C5          18.0920    27.1420   -11.8700 c3         1 QG7      -0.057400
     16 C4          18.8670    26.1750   -12.7610 c3         1 QG7      -0.083400
     17 C3          17.9500    25.2060   -13.5000 c3         1 QG7      -0.065400
     18 C2          18.6940    24.0600   -14.1900 c3         1 QG7      -0.159400
     19 C1          19.7960    24.5920   -15.0800 c          1 QG7       0.595100
     20 C24         22.2390    24.8420   -15.2410 c3         1 QG7       0.098000
     21 O1          19.5630    25.3360   -16.0230 o          1 QG7      -0.595100
     22 N6          21.0410    24.2130   -14.7340 ns         1 QG7      -0.505900
     23 C23         22.5770    26.0610   -14.3830 c3         1 QG7       0.135800
     24 N3          23.7560    26.7790   -14.8220 n3         1 QG7      -0.705600
     25 N4          26.0050    26.6030   -12.5360 nb         1 QG7      -0.657000
     26 C16         26.2980    26.3320   -11.2700 ca         1 QG7       0.340400
     27 C13         25.0230    24.4420   -12.7190 ca         1 QG7      -0.162500
     28 N5          22.8660    29.3160   -16.1320 nb         1 QG7      -0.657000
     29 C18         22.7470    29.0050   -14.8430 ca         1 QG7       0.327800
     30 C22         21.9460    30.0980   -16.6790 ca         1 QG7       0.340400
     31 C21         20.8640    30.6160   -15.9810 ca         1 QG7      -0.161500
     32 C20         20.7390    30.2930   -14.6400 ca         1 QG7      -0.076500
     33 C19         21.6950    29.4720   -14.0620 ca         1 QG7      -0.162500
     34 H1          17.4630    29.9310   -11.0620 h1         1 QG7       0.064700
     35 H3          24.7890    28.5450   -14.4910 h1         1 QG7       0.062200
     36 H4          23.7230    28.1220   -13.1590 h1         1 QG7       0.062200
     37 H5          24.9520    25.1370   -15.2820 h1         1 QG7       0.062200
     38 H6          25.8050    26.6540   -15.1000 h1         1 QG7       0.062200
     39 H7          25.0700    23.2090   -10.9610 ha         1 QG7       0.113500
     40 H8          19.5290    30.2740    -7.6400 hn         1 QG7       0.342500
     41 H9          16.6310    28.1930    -9.5130 hn         1 QG7       0.338500
     42 H10         19.1450    31.2460   -10.0320 h1         1 QG7       0.072700
     43 H11         21.3600    29.8060    -9.3620 h1         1 QG7       0.078700
     44 H12         21.0070    30.2700   -11.0250 h1         1 QG7       0.078700
     45 H13         19.1470    28.9310   -12.3700 h1         1 QG7       0.070700
     46 H14         17.2020    27.4930   -12.4030 hc         1 QG7       0.052700
     47 H15         17.7360    26.6140   -10.9820 hc         1 QG7       0.052700
     48 H16         19.5900    25.6190   -12.1540 hc         1 QG7       0.050700
     49 H17         19.4530    26.7460   -13.4870 hc         1 QG7       0.050700
     50 H18         17.3620    25.7600   -14.2360 hc         1 QG7       0.049700
     51 H19         17.2320    24.7670   -12.8020 hc         1 QG7       0.049700
     52 H20         17.9950    23.4830   -14.7990 hc         1 QG7       0.058700
     53 H21         19.0970    23.3810   -13.4350 hc         1 QG7       0.058700
     54 H22         22.0860    25.1410   -16.2770 h1         1 QG7       0.064700
     55 H23         23.0360    24.0980   -15.2340 h1         1 QG7       0.064700
     56 H24         21.1440    23.6400   -13.9120 hn         1 QG7       0.304500
     57 H25         22.6350    25.7550   -13.3260 h1         1 QG7       0.040200
     58 H26         21.7250    26.7410   -14.4490 h1         1 QG7       0.040200
     59 H28         26.8160    27.1100   -10.7190 h4         1 QG7       0.018600
     60 H29         24.5210    23.7040   -13.3320 ha         1 QG7       0.122500
     61 H30         22.0760    30.3320   -17.7300 h4         1 QG7       0.018600
     62 H31         20.1460    31.2530   -16.4790 ha         1 QG7       0.123500
     63 H32         19.9110    30.6780   -14.0580 ha         1 QG7       0.113500
     64 H33         21.6280    29.1710   -13.0230 ha         1 QG7       0.122500
     65 H2          26.2510    24.9640    -9.6160 ha         1 QG7       0.123500
@<TRIPOS>BOND
     1     1    10 1   
     2     1    11 1   
     3     1    14 1   
     4     1    34 1   
     5     2     6 ar  
     6     2    26 ar  
     7     2    65 1   
     8     3    24 1   
     9     3    29 1   
    10     3    35 1   
    11     3    36 1   
    12     4     5 1   
    13     4    24 1   
    14     4    37 1   
    15     4    38 1   
    16     5    25 ar  
    17     5    27 ar  
    18     6    27 ar  
    19     6    39 1   
    20     7     8 2   
    21     8     9 1   
    22     8    10 1   
    23     9    11 1   
    24     9    40 1   
    25    10    41 1   
    26    11    12 1   
    27    11    42 1   
    28    12    13 1   
    29    12    43 1   
    30    12    44 1   
    31    13    14 1   
    32    14    15 1   
    33    14    45 1   
    34    15    16 1   
    35    15    46 1   
    36    15    47 1   
    37    16    17 1   
    38    16    48 1   
    39    16    49 1   
    40    17    18 1   
    41    17    50 1   
    42    17    51 1   
    43    18    19 1   
    44    18    52 1   
    45    18    53 1   
    46    19    21 2   
    47    19    22 1   
    48    20    22 1   
    49    20    23 1   
    50    20    54 1   
    51    20    55 1   
    52    22    56 1   
    53    23    24 1   
    54    23    57 1   
    55    23    58 1   
    56    25    26 ar  
    57    26    59 1   
    58    27    60 1   
    59    28    29 ar  
    60    28    30 ar  
    61    29    33 ar  
    62    30    31 ar  
    63    30    61 1   
    64    31    32 ar  
    65    31    62 1   
    66    32    33 ar  
    67    32    63 1   
    68    33    64 1   
@<TRIPOS>SUBSTRUCTURE
     1 QG7         1 TEMP              0 ****  ****    0 ROOT
