@<TRIPOS>MOLECULE
QG7
   65    68     1     0     0
SMALL
No Charge or Current Charge


@<TRIPOS>ATOM
      1 C10         18.4040    29.5640   -10.6350 c5         1 QG7       0.097700
      2 C15         26.5830    25.5880   -10.8850 ca         1 QG7      -0.161500
      3 C17         23.9770    28.0570   -14.7330 c3         1 QG7       0.124500
      4 C11         25.0830    25.8310   -14.9090 c3         1 QG7       0.124500
      5 C12         25.6030    25.7240   -13.4610 ca         1 QG7       0.327800
      6 C14         25.6470    24.6250   -11.2920 ca         1 QG7      -0.076500
      7 O2          16.3180    29.2410    -7.8180 o          1 QG7      -0.575000
      8 C9          17.2180    29.4490    -8.6070 c          1 QG7       0.613000
      9 N1          18.4260    29.9730    -8.2950 ns         1 QG7      -0.521900
     10 N2          17.1610    29.2140    -9.9370 ns         1 QG7      -0.513900
     11 C8          19.3260    30.0640    -9.4470 c5         1 QG7       0.102700
     12 C7          20.4270    28.9820    -9.1800 c5         1 QG7       0.027600
     13 S1          19.7240    27.3580    -9.7240 ss         1 QG7      -0.414000
     14 C6          19.0220    28.2310   -11.1960 c5         1 QG7       0.072300
     15 C5          18.0670    27.3170   -12.0090 c3         1 QG7      -0.057400
     16 C4          18.7720    26.1220   -12.6920 c3         1 QG7      -0.083400
     17 C3          17.8270    25.2900   -13.5920 c3         1 QG7      -0.065400
     18 C2          18.5090    24.0690   -14.2580 c3         1 QG7      -0.159400
     19 C1          19.7260    24.4790   -15.0950 c          1 QG7       0.595100
     20 C24         22.2390    24.5800   -15.0790 c3         1 QG7       0.098000
     21 O1          19.6230    25.0720   -16.1590 o          1 QG7      -0.595100
     22 N6          20.9440    24.1200   -14.5640 ns         1 QG7      -0.505900
     23 C23         22.5960    25.9860   -14.5330 c3         1 QG7       0.135800
     24 N3          23.8170    26.6140   -15.1110 n3         1 QG7      -0.705600
     25 N4          26.5160    26.6480   -13.0630 nb         1 QG7      -0.657000
     26 C16         26.9890    26.5760   -11.7980 ca         1 QG7       0.340400
     27 C13         25.1530    24.6970   -12.6050 ca         1 QG7      -0.162500
     28 N5          22.6900    29.4890   -16.2960 nb         1 QG7      -0.657000
     29 C18         22.7850    28.9830   -15.0390 ca         1 QG7       0.327800
     30 C22         21.6440    30.3000   -16.5780 ca         1 QG7       0.340400
     31 C21         20.6640    30.6430   -15.6310 ca         1 QG7      -0.161500
     32 C20         20.7620    30.1300   -14.3280 ca         1 QG7      -0.076500
     33 C19         21.8460    29.2870   -14.0320 ca         1 QG7      -0.162500
     34 H1          18.2520    30.3260   -11.4120 h1         1 QG7       0.064700
     35 H3          24.8570    28.4730   -15.2440 h1         1 QG7       0.062200
     36 H4          24.1860    28.1360   -13.6580 h1         1 QG7       0.062200
     37 H5          24.9660    24.8130   -15.3030 h1         1 QG7       0.062200
     38 H6          25.8800    26.2830   -15.5150 h1         1 QG7       0.062200
     39 H7          25.3140    23.8450   -10.6110 ha         1 QG7       0.113500
     40 H8          18.6350    30.2060    -7.3330 hn         1 QG7       0.342500
     41 H9          16.3190    28.8260   -10.3410 hn         1 QG7       0.338500
     42 H10         19.7350    31.0730    -9.5980 h1         1 QG7       0.072700
     43 H11         20.7400    28.9440    -8.1280 h1         1 QG7       0.078700
     44 H12         21.3200    29.1920    -9.7840 h1         1 QG7       0.078700
     45 H13         19.8630    28.4910   -11.8530 h1         1 QG7       0.070700
     46 H14         17.5770    27.9190   -12.7850 hc         1 QG7       0.052700
     47 H15         17.2700    26.9300   -11.3640 hc         1 QG7       0.052700
     48 H16         19.2050    25.4680   -11.9260 hc         1 QG7       0.050700
     49 H17         19.6050    26.5080   -13.2920 hc         1 QG7       0.050700
     50 H18         17.4140    25.9400   -14.3750 hc         1 QG7       0.049700
     51 H19         16.9760    24.9380   -12.9960 hc         1 QG7       0.049700
     52 H20         17.7780    23.5860   -14.9170 hc         1 QG7       0.058700
     53 H21         18.8110    23.3650   -13.4730 hc         1 QG7       0.058700
     54 H22         22.2010    24.6150   -16.1760 h1         1 QG7       0.064700
     55 H23         23.0080    23.8540   -14.7900 h1         1 QG7       0.064700
     56 H24         20.9260    23.6080   -13.6890 hn         1 QG7       0.304500
     57 H25         22.6840    25.9260   -13.4390 h1         1 QG7       0.040200
     58 H26         21.7280    26.6250   -14.7410 h1         1 QG7       0.040200
     59 H28         27.7170    27.3330   -11.5080 h4         1 QG7       0.018600
     60 H29         24.4310    23.9660   -12.9550 ha         1 QG7       0.122500
     61 H30         21.5920    30.6880   -17.5950 h4         1 QG7       0.018600
     62 H31         19.8450    31.2990   -15.9090 ha         1 QG7       0.123500
     63 H32         20.0220    30.3810   -13.5710 ha         1 QG7       0.113500
     64 H33         21.9600    28.8690   -13.0360 ha         1 QG7       0.122500
     65 H2          26.9940    25.5740    -9.8800 ha         1 QG7       0.123500
@<TRIPOS>BOND
     1     1    10 1   
     2     1    11 1   
     3     1    14 1   
     4     1    34 1   
     5     2     6 ar  
     6     2    26 ar  
     7     2    65 1   
     8     3    24 1   
     9     3    29 1   
    10     3    35 1   
    11     3    36 1   
    12     4     5 1   
    13     4    24 1   
    14     4    37 1   
    15     4    38 1   
    16     5    25 ar  
    17     5    27 ar  
    18     6    27 ar  
    19     6    39 1   
    20     7     8 2   
    21     8     9 1   
    22     8    10 1   
    23     9    11 1   
    24     9    40 1   
    25    10    41 1   
    26    11    12 1   
    27    11    42 1   
    28    12    13 1   
    29    12    43 1   
    30    12    44 1   
    31    13    14 1   
    32    14    15 1   
    33    14    45 1   
    34    15    16 1   
    35    15    46 1   
    36    15    47 1   
    37    16    17 1   
    38    16    48 1   
    39    16    49 1   
    40    17    18 1   
    41    17    50 1   
    42    17    51 1   
    43    18    19 1   
    44    18    52 1   
    45    18    53 1   
    46    19    21 2   
    47    19    22 1   
    48    20    22 1   
    49    20    23 1   
    50    20    54 1   
    51    20    55 1   
    52    22    56 1   
    53    23    24 1   
    54    23    57 1   
    55    23    58 1   
    56    25    26 ar  
    57    26    59 1   
    58    27    60 1   
    59    28    29 ar  
    60    28    30 ar  
    61    29    33 ar  
    62    30    31 ar  
    63    30    61 1   
    64    31    32 ar  
    65    31    62 1   
    66    32    33 ar  
    67    32    63 1   
    68    33    64 1   
@<TRIPOS>SUBSTRUCTURE
     1 QG7         1 TEMP              0 ****  ****    0 ROOT
