@<TRIPOS>MOLECULE
QG8
  106   111     1     0     0
SMALL
abcg2


@<TRIPOS>ATOM
      1 C1           4.6970    -0.1130     0.6610 c          1 QG8       0.586000
      2 O2           5.1910     0.7990     1.2960 o          1 QG8      -0.531000
      3 C3           3.2610    -0.1610     0.1490 c5         1 QG8      -0.118000
      4 C4           3.0510    -1.6710    -0.0510 c5         1 QG8       0.159300
      5 C5           4.4500    -2.1520    -0.4460 c5         1 QG8       0.065000
      6 N6           5.3280    -1.2290     0.2440 n          1 QG8      -0.397800
      7 C7           6.7530    -1.4730     0.3260 c5         1 QG8       0.188000
      8 C8           7.5760    -0.4100    -0.3530 ca         1 QG8      -0.125300
      9 C9           8.2840     0.3460     0.5730 ca         1 QG8      -0.045300
     10 C10          8.0260    -0.1300     1.9710 c5         1 QG8      -0.073100
     11 C11          7.3620    -1.5020     1.7510 c5         1 QG8       0.163300
     12 O12          6.4030    -1.8820     2.6950 oh         1 QG8      -0.631000
     13 C13          9.0880     1.3920     0.1420 ca         1 QG8      -0.099000
     14 C14          9.1660     1.6720    -1.2170 ca         1 QG8      -0.100000
     15 C15          8.4580     0.9090    -2.1410 ca         1 QG8      -0.122000
     16 C16          7.6570    -0.1430    -1.7100 ca         1 QG8      -0.086000
     17 O17          2.6430    -2.2370     1.1690 oh         1 QG8      -0.640000
     18 C19         -0.0950     1.0230     1.7450 c3         1 QG8       0.164800
     19 C20          2.2900     0.5020     1.1230 c3         1 QG8      -0.048400
     20 C21          3.2320     0.5120    -1.2530 c3         1 QG8      -0.020100
     21 C22          3.5800     1.9750    -1.2780 ca         1 QG8      -0.080300
     22 C23          4.9020     2.3890    -1.4270 ca         1 QG8      -0.096000
     23 C24          5.2310     3.7360    -1.4540 ca         1 QG8      -0.111500
     24 C25          4.2390     4.7010    -1.3320 ca         1 QG8      -0.108000
     25 C26          2.9170     4.3040    -1.1910 ca         1 QG8      -0.111500
     26 C27          2.5930     2.9530    -1.1690 ca         1 QG8      -0.096000
     27 C28         -7.5890     1.3990    -0.4220 cp         1 QG8      -0.034000
     28 C29         -6.2780     1.5280     0.2430 cp         1 QG8      -0.031000
     29 C30         -6.0300     0.9050     1.4650 ca         1 QG8      -0.102500
     30 C31         -4.7900     1.0170     2.0770 ca         1 QG8      -0.088000
     31 C32         -3.7670     1.7510     1.4920 ca         1 QG8      -0.094300
     32 C33         -4.0130     2.3770     0.2740 ca         1 QG8      -0.088000
     33 C34         -5.2500     2.2730    -0.3380 ca         1 QG8      -0.102500
     34 C35         -2.3940     1.7900     2.1020 c3         1 QG8       0.199100
     35 N36         -1.4820     0.9690     1.3120 n3         1 QG8      -0.466600
     36 N37         -1.9570    -0.3230     1.2350 ns         1 QG8      -0.381300
     37 C38         -2.4220    -0.8270     0.0760 c          1 QG8       0.605100
     38 C39         -3.1360    -2.1720     0.2140 c3         1 QG8       0.048700
     39 N40         -4.3500    -2.0740    -0.5590 ns         1 QG8      -0.486900
     40 C41         -5.5780    -2.2200    -0.0190 c          1 QG8       0.639100
     41 O42         -6.5200    -1.9060    -0.9110 os         1 QG8      -0.449100
     42 C43         -7.8730    -2.0500    -0.4980 c3         1 QG8       0.169900
     43 O44         -5.8140    -2.6050     1.1070 o          1 QG8      -0.553000
     44 C45         -2.2590    -3.3900    -0.1810 c3         1 QG8      -0.045000
     45 C46         -1.0590    -3.4680     0.7650 c3         1 QG8      -0.087767
     46 C47         -3.1030    -4.6540    -0.0050 c3         1 QG8      -0.087767
     47 C48         -1.7680    -3.3120    -1.6270 c3         1 QG8      -0.087767
     48 O49         -2.3150    -0.2740    -1.0020 o          1 QG8      -0.576100
     49 C50         -7.6710     1.2330    -1.8060 ca         1 QG8      -0.098500
     50 C51         -8.9000     1.0930    -2.4320 ca         1 QG8      -0.115500
     51 C52        -10.0720     1.1100    -1.6870 ca         1 QG8      -0.112000
     52 C53        -10.0030     1.2770    -0.3090 ca         1 QG8      -0.115500
     53 C54         -8.7730     1.4210     0.3150 ca         1 QG8      -0.098500
     54 H4           2.3250    -1.8760    -0.8480 h1         1 QG8       0.048700
     55 H5           4.6300    -3.1800    -0.1240 h1         1 QG8       0.044700
     56 H5A          4.6010    -2.1170    -1.5300 h1         1 QG8       0.044700
     57 H7           6.9060    -2.4460    -0.1460 h1         1 QG8       0.060700
     58 H10          8.9400    -0.2110     2.5640 hc         1 QG8       0.072700
     59 H10A         7.3510     0.5510     2.4900 hc         1 QG8       0.072700
     60 H11          8.1730    -2.2420     1.7020 h1         1 QG8       0.024700
     61 HO12         6.8470    -1.9830     3.5430 ho         1 QG8       0.442000
     62 H13          9.6490     1.9880     0.8520 ha         1 QG8       0.116000
     63 H14          9.7880     2.4880    -1.5620 ha         1 QG8       0.112000
     64 H15          8.5340     1.1340    -3.1970 ha         1 QG8       0.113000
     65 H16          7.1040    -0.7380    -2.4270 ha         1 QG8       0.111000
     66 HO17         2.5060    -3.1790     1.0350 ho         1 QG8       0.442000
     67 H18          0.5760    -0.7230     0.6950 hc         1 QG8       0.053200
     68 H18A         0.6150     0.7520    -0.2400 hc         1 QG8       0.053200
     69 H19          0.0400     0.5930     2.7500 h1         1 QG8       0.038700
     70 H19A         0.1720     2.0810     1.8200 h1         1 QG8       0.038700
     71 H20          2.4530     0.1030     2.1270 hc         1 QG8       0.062200
     72 H20A         2.5360     1.5650     1.1860 hc         1 QG8       0.062200
     73 H21          3.9100    -0.0230    -1.9240 hc         1 QG8       0.049200
     74 H21A         2.2320     0.3640    -1.6660 hc         1 QG8       0.049200
     75 H23          5.6910     1.6530    -1.5240 ha         1 QG8       0.115000
     76 H24          6.2660     4.0320    -1.5750 ha         1 QG8       0.110000
     77 H25          4.4930     5.7530    -1.3550 ha         1 QG8       0.109000
     78 H26          2.1330     5.0450    -1.1050 ha         1 QG8       0.110000
     79 H27          1.5540     2.6610    -1.0720 ha         1 QG8       0.115000
     80 H30         -6.7980     0.3020     1.9320 ha         1 QG8       0.118500
     81 H31         -4.6110     0.5060     3.0160 ha         1 QG8       0.116500
     82 H33         -3.2290     2.9510    -0.2040 ha         1 QG8       0.116500
     83 H34         -5.4210     2.7860    -1.2760 ha         1 QG8       0.118500
     84 H35         -1.9980     2.8070     2.1050 h1         1 QG8       0.046200
     85 H35A        -2.4390     1.4590     3.1510 h1         1 QG8       0.046200
     86 HN37        -2.1350    -0.8190     2.1020 hn         1 QG8       0.302500
     87 H39         -3.4280    -2.3240     1.2550 h1         1 QG8       0.081700
     88 HN40        -4.2840    -1.6420    -1.4680 hn         1 QG8       0.342500
     89 H43         -8.1130    -3.0870    -0.2600 h1         1 QG8       0.048367
     90 H43A        -8.1050    -1.4190     0.3590 h1         1 QG8       0.048367
     91 H43B        -8.4770    -1.7230    -1.3400 h1         1 QG8       0.048367
     92 H46         -1.3780    -3.5130     1.8090 hc         1 QG8       0.038922
     93 H46A        -0.4770    -4.3690     0.5620 hc         1 QG8       0.038922
     94 H46B        -0.3830    -2.6180     0.6590 hc         1 QG8       0.038922
     95 H47         -3.9420    -4.6810    -0.7000 hc         1 QG8       0.038922
     96 H47A        -2.4930    -5.5400    -0.1880 hc         1 QG8       0.038922
     97 H47B        -3.5020    -4.7310     1.0080 hc         1 QG8       0.038922
     98 H48         -1.0720    -2.4880    -1.7860 hc         1 QG8       0.038922
     99 H48A        -1.2480    -4.2350    -1.8880 hc         1 QG8       0.038922
    100 H48B        -2.5940    -3.2000    -2.3320 hc         1 QG8       0.038922
    101 H50         -6.7660     1.1900    -2.3980 ha         1 QG8       0.117500
    102 H51         -8.9420     0.9590    -3.5050 ha         1 QG8       0.113000
    103 H52        -11.0310     0.9960    -2.1750 ha         1 QG8       0.112000
    104 H53        -10.9100     1.3010     0.2820 ha         1 QG8       0.113000
    105 H54         -8.7360     1.5640     1.3880 ha         1 QG8       0.117500
    106 C18          0.8240     0.3380     0.7480 c3         1 QG8      -0.075400
@<TRIPOS>BOND
     1     1     2 2   
     2     1     3 1   
     3     1     6 1   
     4     3     4 1   
     5     3    19 1   
     6     3    20 1   
     7     4     5 1   
     8     4    17 1   
     9     4    54 1   
    10     5     6 1   
    11     5    55 1   
    12     5    56 1   
    13     6     7 1   
    14     7     8 1   
    15     7    11 1   
    16     7    57 1   
    17     8     9 ar  
    18     8    16 ar  
    19     9    10 1   
    20     9    13 ar  
    21    10    11 1   
    22    10    58 1   
    23    10    59 1   
    24    11    12 1   
    25    11    60 1   
    26    12    61 1   
    27    13    14 ar  
    28    13    62 1   
    29    14    15 ar  
    30    14    63 1   
    31    15    16 ar  
    32    15    64 1   
    33    16    65 1   
    34    17    66 1   
    35    18    35 1   
    36    18    69 1   
    37    18    70 1   
    38    18   106 1   
    39    19    71 1   
    40    19    72 1   
    41    19   106 1   
    42    20    21 1   
    43    20    73 1   
    44    20    74 1   
    45    21    22 ar  
    46    21    26 ar  
    47    22    23 ar  
    48    22    75 1   
    49    23    24 ar  
    50    23    76 1   
    51    24    25 ar  
    52    24    77 1   
    53    25    26 ar  
    54    25    78 1   
    55    26    79 1   
    56    27    28 1   
    57    27    49 ar  
    58    27    53 ar  
    59    28    29 ar  
    60    28    33 ar  
    61    29    30 ar  
    62    29    80 1   
    63    30    31 ar  
    64    30    81 1   
    65    31    32 ar  
    66    31    34 1   
    67    32    33 ar  
    68    32    82 1   
    69    33    83 1   
    70    34    35 1   
    71    34    84 1   
    72    34    85 1   
    73    35    36 1   
    74    36    37 1   
    75    36    86 1   
    76    37    38 1   
    77    37    48 2   
    78    38    39 1   
    79    38    44 1   
    80    38    87 1   
    81    39    40 1   
    82    39    88 1   
    83    40    41 1   
    84    40    43 2   
    85    41    42 1   
    86    42    89 1   
    87    42    90 1   
    88    42    91 1   
    89    44    45 1   
    90    44    46 1   
    91    44    47 1   
    92    45    92 1   
    93    45    93 1   
    94    45    94 1   
    95    46    95 1   
    96    46    96 1   
    97    46    97 1   
    98    47    98 1   
    99    47    99 1   
   100    47   100 1   
   101    49    50 ar  
   102    49   101 1   
   103    50    51 ar  
   104    50   102 1   
   105    51    52 ar  
   106    51   103 1   
   107    52    53 ar  
   108    52   104 1   
   109    53   105 1   
   110    67   106 1   
   111    68   106 1   
@<TRIPOS>SUBSTRUCTURE
     1 QG8         1 TEMP              0 ****  ****    0 ROOT
