@<TRIPOS>MOLECULE
QG8
  106   111     1     0     0
SMALL
No Charge or Current Charge


@<TRIPOS>ATOM
      1 C1           4.9830     0.0240     0.4210 c          1 QG8       0.586000
      2 O2           5.4510     0.9170     1.1150 o          1 QG8      -0.531000
      3 C3           3.5230    -0.1440    -0.1550 c5         1 QG8      -0.118000
      4 C4           3.2810    -1.7340    -0.2590 c5         1 QG8       0.159300
      5 C5           4.7440    -2.2150    -0.5920 c5         1 QG8       0.065000
      6 N6           5.6030    -1.1680     0.0260 n          1 QG8      -0.397800
      7 C7           7.0480    -1.5140     0.1680 c5         1 QG8       0.188000
      8 C8           7.9100    -0.2950    -0.0400 ca         1 QG8      -0.125300
      9 C9           8.4380     0.1800     1.1450 ca         1 QG8      -0.045300
     10 C10          7.9820    -0.6100     2.3480 c5         1 QG8      -0.073100
     11 C11          7.3780    -1.9080     1.6790 c5         1 QG8       0.163300
     12 O12          6.2810    -2.4440     2.4320 oh         1 QG8      -0.631000
     13 C13          9.2740     1.3080     1.1560 ca         1 QG8      -0.099000
     14 C14          9.5800     1.9450    -0.0630 ca         1 QG8      -0.100000
     15 C15          9.0490     1.4510    -1.2720 ca         1 QG8      -0.122000
     16 C16          8.2100     0.3200    -1.2660 ca         1 QG8      -0.086000
     17 O17          2.8230    -2.2980     0.9740 oh         1 QG8      -0.640000
     18 C19          0.0550     1.2150     1.3380 c3         1 QG8       0.164800
     19 C20          2.4950     0.6040     0.7630 c3         1 QG8      -0.048400
     20 C21          3.5090     0.4830    -1.5980 c3         1 QG8      -0.020100
     21 C22          3.7570     1.9910    -1.6850 ca         1 QG8      -0.080300
     22 C23          5.0720     2.4980    -1.6620 ca         1 QG8      -0.096000
     23 C24          5.3070     3.8800    -1.7480 ca         1 QG8      -0.111500
     24 C25          4.2280     4.7710    -1.8690 ca         1 QG8      -0.108000
     25 C26          2.9150     4.2750    -1.9100 ca         1 QG8      -0.111500
     26 C27          2.6800     2.8920    -1.8240 ca         1 QG8      -0.096000
     27 C28         -7.8160     1.3330    -0.0770 cp         1 QG8      -0.034000
     28 C29         -6.4150     1.5550     0.4040 cp         1 QG8      -0.031000
     29 C30         -5.9550     0.9720     1.6100 ca         1 QG8      -0.102500
     30 C31         -4.6320     1.1540     2.0490 ca         1 QG8      -0.088000
     31 C32         -3.7300     1.9240     1.2900 ca         1 QG8      -0.094300
     32 C33         -4.1740     2.5220     0.0960 ca         1 QG8      -0.088000
     33 C34         -5.4980     2.3400    -0.3400 ca         1 QG8      -0.102500
     34 C35         -2.2670     2.0440     1.7170 c3         1 QG8       0.199100
     35 N36         -1.3730     1.1380     0.9530 n3         1 QG8      -0.466600
     36 N37         -1.8740    -0.2060     0.9440 ns         1 QG8      -0.381300
     37 C38         -2.5550    -0.7450    -0.1480 c          1 QG8       0.605100
     38 C39         -3.3660    -2.0410     0.1630 c3         1 QG8       0.048700
     39 N40         -4.6140    -2.0140    -0.6370 ns         1 QG8      -0.486900
     40 C41         -5.8680    -2.2440    -0.1500 c          1 QG8       0.639100
     41 O42         -6.7670    -2.0780    -1.1590 os         1 QG8      -0.449100
     42 C43         -8.1600    -2.2520    -0.8460 c3         1 QG8       0.169900
     43 O44         -6.1330    -2.5470     1.0020 o          1 QG8      -0.553000
     44 C45         -2.5550    -3.3740    -0.0460 c3         1 QG8      -0.045000
     45 C46         -1.2950    -3.3900     0.8620 c3         1 QG8      -0.087767
     46 C47         -3.4340    -4.5970     0.3400 c3         1 QG8      -0.087767
     47 C48         -2.1040    -3.5330    -1.5250 c3         1 QG8      -0.087767
     48 O49         -2.5620    -0.2080    -1.2530 o          1 QG8      -0.576100
     49 C50         -8.1050     1.2200    -1.4620 ca         1 QG8      -0.098500
     50 C51         -9.4170     0.9950    -1.9140 ca         1 QG8      -0.115500
     51 C52        -10.4690     0.8790    -0.9920 ca         1 QG8      -0.112000
     52 C53        -10.2070     0.9890     0.3830 ca         1 QG8      -0.115500
     53 C54         -8.8950     1.2130     0.8350 ca         1 QG8      -0.098500
     54 H4           2.5800    -1.9920    -1.0660 h1         1 QG8       0.048700
     55 H5           4.9540    -3.2120    -0.1820 h1         1 QG8       0.044700
     56 H5A          4.9100    -2.2540    -1.6760 h1         1 QG8       0.044700
     57 H7           7.3380    -2.3180    -0.5220 h1         1 QG8       0.060700
     58 H10          8.8030    -0.8490     3.0330 hc         1 QG8       0.072700
     59 H10A         7.2290    -0.0570     2.9210 hc         1 QG8       0.072700
     60 H11          8.1770    -2.6620     1.6450 h1         1 QG8       0.024700
     61 HO12         6.6330    -2.6840     3.3160 ho         1 QG8       0.442000
     62 H13          9.6780     1.6870     2.0930 ha         1 QG8       0.116000
     63 H14         10.2260     2.8200    -0.0700 ha         1 QG8       0.112000
     64 H15          9.2880     1.9440    -2.2120 ha         1 QG8       0.113000
     65 H16          7.7980    -0.0680    -2.1950 ha         1 QG8       0.111000
     66 HO17         2.9260    -3.2710     0.9020 ho         1 QG8       0.442000
     67 H18          0.7360    -0.6220     0.4130 hc         1 QG8       0.053200
     68 H18A         0.8200     0.7840    -0.6320 hc         1 QG8       0.053200
     69 H19          0.1870     0.8350     2.3600 h1         1 QG8       0.038700
     70 H19A         0.3690     2.2670     1.3410 h1         1 QG8       0.038700
     71 H20          2.6230     0.2570     1.7960 hc         1 QG8       0.062200
     72 H20A         2.7320     1.6740     0.7940 hc         1 QG8       0.062200
     73 H21          4.2590    -0.0160    -2.2240 hc         1 QG8       0.049200
     74 H21A         2.5560     0.2490    -2.0870 hc         1 QG8       0.049200
     75 H23          5.9160     1.8200    -1.5750 ha         1 QG8       0.115000
     76 H24          6.3260     4.2600    -1.7220 ha         1 QG8       0.110000
     77 H25          4.4090     5.8410    -1.9360 ha         1 QG8       0.109000
     78 H26          2.0780     4.9620    -2.0120 ha         1 QG8       0.110000
     79 H27          1.6590     2.5240    -1.8680 ha         1 QG8       0.115000
     80 H30         -6.6200     0.3470     2.2000 ha         1 QG8       0.118500
     81 H31         -4.3020     0.6730     2.9670 ha         1 QG8       0.116500
     82 H33         -3.4840     3.1090    -0.5060 ha         1 QG8       0.116500
     83 H34         -5.8130     2.8130    -1.2660 ha         1 QG8       0.118500
     84 H35         -1.9450     3.0850     1.5830 h1         1 QG8       0.046200
     85 H35A        -2.1920     1.8230     2.7910 h1         1 QG8       0.046200
     86 HN37        -1.9230    -0.7220     1.8170 hn         1 QG8       0.302500
     87 H39         -3.6470    -1.9760     1.2220 h1         1 QG8       0.081700
     88 HN40        -4.5630    -1.7340    -1.6090 hn         1 QG8       0.342500
     89 H43         -8.3580    -3.2740    -0.4980 h1         1 QG8       0.048367
     90 H43A        -8.4760    -1.5520    -0.0620 h1         1 QG8       0.048367
     91 H43B        -8.7780    -2.0680    -1.7340 h1         1 QG8       0.048367
     92 H46         -1.5640    -3.2240     1.9120 hc         1 QG8       0.038922
     93 H46A        -0.7770    -4.3550     0.7970 hc         1 QG8       0.038922
     94 H46B        -0.5760    -2.6180     0.5650 hc         1 QG8       0.038922
     95 H47         -4.3010    -4.6950    -0.3240 hc         1 QG8       0.038922
     96 H47A        -2.8620    -5.5300     0.2710 hc         1 QG8       0.038922
     97 H47B        -3.8030    -4.5040     1.3690 hc         1 QG8       0.038922
     98 H48         -1.4410    -2.7150    -1.8310 hc         1 QG8       0.038922
     99 H48A        -1.5550    -4.4730    -1.6650 hc         1 QG8       0.038922
    100 H48B        -2.9630    -3.5480    -2.2060 hc         1 QG8       0.038922
    101 H50         -7.3030     1.2870    -2.1920 ha         1 QG8       0.117500
    102 H51         -9.6160     0.9060    -2.9800 ha         1 QG8       0.113000
    103 H52        -11.4840     0.7040    -1.3420 ha         1 QG8       0.112000
    104 H53        -11.0210     0.9020     1.1000 ha         1 QG8       0.113000
    105 H54         -8.7170     1.3060     1.9030 ha         1 QG8       0.117500
    106 C18          0.9980     0.4400     0.3910 c3         1 QG8      -0.075400
@<TRIPOS>BOND
     1     1     2 2   
     2     1     3 1   
     3     1     6 1   
     4     3     4 1   
     5     3    19 1   
     6     3    20 1   
     7     4     5 1   
     8     4    17 1   
     9     4    54 1   
    10     5     6 1   
    11     5    55 1   
    12     5    56 1   
    13     6     7 1   
    14     7     8 1   
    15     7    11 1   
    16     7    57 1   
    17     8     9 ar  
    18     8    16 ar  
    19     9    10 1   
    20     9    13 ar  
    21    10    11 1   
    22    10    58 1   
    23    10    59 1   
    24    11    12 1   
    25    11    60 1   
    26    12    61 1   
    27    13    14 ar  
    28    13    62 1   
    29    14    15 ar  
    30    14    63 1   
    31    15    16 ar  
    32    15    64 1   
    33    16    65 1   
    34    17    66 1   
    35    18    35 1   
    36    18    69 1   
    37    18    70 1   
    38    18   106 1   
    39    19    71 1   
    40    19    72 1   
    41    19   106 1   
    42    20    21 1   
    43    20    73 1   
    44    20    74 1   
    45    21    22 ar  
    46    21    26 ar  
    47    22    23 ar  
    48    22    75 1   
    49    23    24 ar  
    50    23    76 1   
    51    24    25 ar  
    52    24    77 1   
    53    25    26 ar  
    54    25    78 1   
    55    26    79 1   
    56    27    28 1   
    57    27    49 ar  
    58    27    53 ar  
    59    28    29 ar  
    60    28    33 ar  
    61    29    30 ar  
    62    29    80 1   
    63    30    31 ar  
    64    30    81 1   
    65    31    32 ar  
    66    31    34 1   
    67    32    33 ar  
    68    32    82 1   
    69    33    83 1   
    70    34    35 1   
    71    34    84 1   
    72    34    85 1   
    73    35    36 1   
    74    36    37 1   
    75    36    86 1   
    76    37    38 1   
    77    37    48 2   
    78    38    39 1   
    79    38    44 1   
    80    38    87 1   
    81    39    40 1   
    82    39    88 1   
    83    40    41 1   
    84    40    43 2   
    85    41    42 1   
    86    42    89 1   
    87    42    90 1   
    88    42    91 1   
    89    44    45 1   
    90    44    46 1   
    91    44    47 1   
    92    45    92 1   
    93    45    93 1   
    94    45    94 1   
    95    46    95 1   
    96    46    96 1   
    97    46    97 1   
    98    47    98 1   
    99    47    99 1   
   100    47   100 1   
   101    49    50 ar  
   102    49   101 1   
   103    50    51 ar  
   104    50   102 1   
   105    51    52 ar  
   106    51   103 1   
   107    52    53 ar  
   108    52   104 1   
   109    53   105 1   
   110    67   106 1   
   111    68   106 1   
@<TRIPOS>SUBSTRUCTURE
     1 QG8         1 TEMP              0 ****  ****    0 ROOT
