@<TRIPOS>MOLECULE
QG9
  105   110     1     0     0
SMALL
bcc


@<TRIPOS>ATOM
      1 C1           4.8810     1.2690    -0.4960 c          1 QG9       0.709500
      2 O2           5.4630     2.3140    -0.2700 o          1 QG9      -0.611500
      3 C4           3.5980    -0.3350    -1.6320 c5         1 QG9       0.131100
      4 C5           4.4190    -1.0210    -0.5430 c5         1 QG9       0.066000
      5 N6           5.3160     0.0400    -0.1430 n          1 QG9      -0.464800
      6 C7           6.5280    -0.1910     0.6050 c5         1 QG9       0.176000
      7 C8           6.3030    -1.1680     1.7280 ca         1 QG9      -0.119300
      8 C9           6.8750    -2.4020     1.4390 ca         1 QG9      -0.077300
      9 C10          7.5520    -2.3810     0.1000 c5         1 QG9      -0.075100
     10 C11          7.6500    -0.8760    -0.2170 c5         1 QG9       0.126100
     11 O12          7.5330    -0.5330    -1.5680 oh         1 QG9      -0.575800
     12 C13          6.7580    -3.4510     2.3400 ca         1 QG9      -0.119000
     13 C14          6.0530    -3.2510     3.5210 ca         1 QG9      -0.119000
     14 C15          5.4750    -2.0150     3.8020 ca         1 QG9      -0.134000
     15 C16          5.5960    -0.9640     2.9020 ca         1 QG9      -0.096000
     16 O17          2.3590    -0.9220    -1.8920 oh         1 QG9      -0.577800
     17 C18          1.0130     1.1760    -0.3000 c3         1 QG9      -0.070400
     18 C19          0.1810     1.6870     0.8650 c3         1 QG9       0.155800
     19 C21          3.2870     2.0680    -2.3410 c3         1 QG9      -0.008100
     20 C22          3.3410     3.5530    -2.0900 ca         1 QG9      -0.070300
     21 C27          2.2560     4.2590    -1.5720 ca         1 QG9      -0.112500
     22 C26          2.3160     5.6350    -1.3840 ca         1 QG9      -0.132500
     23 C25          3.4630     6.3370    -1.7230 ca         1 QG9      -0.127000
     24 C24          4.5470     5.6500    -2.2560 ca         1 QG9      -0.132500
     25 C23          4.4820     4.2760    -2.4330 ca         1 QG9      -0.112500
     26 C28         -7.5700     0.5620     0.6520 cp         1 QG9       0.010000
     27 C29         -6.1830     0.9850     0.9100 cp         1 QG9      -0.042000
     28 C30         -5.5360     0.6140     2.0870 ca         1 QG9      -0.110000
     29 C31         -4.2280     1.0050     2.3270 ca         1 QG9      -0.110500
     30 C32         -3.5300     1.7690     1.3990 ca         1 QG9      -0.085300
     31 C33         -4.1740     2.1400     0.2230 ca         1 QG9      -0.110500
     32 C34         -5.4840     1.7630    -0.0160 ca         1 QG9      -0.110000
     33 C35         -2.0900     2.1260     1.6260 c3         1 QG9       0.195100
     34 N36         -1.2360     1.3990     0.6920 n3         1 QG9      -0.451600
     35 N37         -1.4960     0.0460     0.7650 ns         1 QG9      -0.456300
     36 C38         -1.9810    -0.6370    -0.2890 c          1 QG9       0.678100
     37 C39         -2.3440    -2.0940     0.0150 c3         1 QG9       0.051700
     38 N40         -3.4930    -2.4190    -0.7910 ns         1 QG9      -0.556900
     39 C41         -4.6510    -2.8930    -0.2940 c          1 QG9       0.759100
     40 O42         -5.5440    -3.0480    -1.2780 os         1 QG9      -0.429900
     41 C43         -6.7930    -3.6350    -0.9330 c3         1 QG9       0.147700
     42 O44         -4.8700    -3.1640     0.8680 o          1 QG9      -0.603000
     43 C45         -1.1680    -3.0890    -0.2080 c3         1 QG9      -0.049000
     44 C46         -0.0030    -2.7450     0.7230 c3         1 QG9      -0.089433
     45 C47         -1.6650    -4.4930     0.1420 c3         1 QG9      -0.089433
     46 C48         -0.6820    -3.0690    -1.6570 c3         1 QG9      -0.089433
     47 O49         -2.1280    -0.1620    -1.3990 o          1 QG9      -0.572100
     48 C54         -8.0490    -0.6670     1.1010 ca         1 QG9      -0.240800
     49 C53         -9.3630    -1.0200     0.8400 ca         1 QG9       0.395200
     50 N52        -10.2160    -0.2490     0.1750 nb         1 QG9      -0.665000
     51 C51         -9.7610     0.9220    -0.2570 ca         1 QG9       0.395200
     52 C3           3.5030     1.1210    -1.1470 c5         1 QG9      -0.107000
     53 C50         -8.4660     1.3690    -0.0470 ca         1 QG9      -0.240800
     54 C20          2.4990     1.3420     0.0060 c3         1 QG9      -0.059400
     55 H4           4.2180    -0.3250    -2.5410 h1         1 QG9       0.045700
     56 H51C         3.7910    -1.3590     0.2880 h1         1 QG9       0.052200
     57 H52C         4.9610    -1.8850    -0.9270 h1         1 QG9       0.052200
     58 H17          2.5090    -1.7780    -2.3040 ho         1 QG9       0.408000
     59 H7           6.8630     0.7810     0.9680 h1         1 QG9       0.100700
     60 H11          8.5980    -0.5150     0.2030 h1         1 QG9       0.041700
     61 H16          5.1500    -0.0010     3.1220 ha         1 QG9       0.140000
     62 H101         8.5300    -2.8650     0.1140 hc         1 QG9       0.059200
     63 H102         6.9500    -2.9030    -0.6510 hc         1 QG9       0.059200
     64 H13          7.2050    -4.4150     2.1270 ha         1 QG9       0.134000
     65 H12          8.2970    -0.8870    -2.0350 ho         1 QG9       0.405000
     66 H14          5.9540    -4.0620     4.2310 ha         1 QG9       0.132000
     67 H15          4.9310    -1.8750     4.7280 ha         1 QG9       0.133000
     68 H181         0.7920     0.1280    -0.4870 hc         1 QG9       0.066700
     69 H182         0.7210     1.7130    -1.2040 hc         1 QG9       0.066700
     70 H191         0.5600     1.2750     1.8150 h1         1 QG9       0.034700
     71 H192         0.2810     2.7730     0.9400 h1         1 QG9       0.034700
     72 H201         2.6740     2.3510     0.3930 hc         1 QG9       0.046200
     73 H202         2.7530     0.6680     0.8310 hc         1 QG9       0.046200
     74 H211         2.3210     1.8120    -2.7860 hc         1 QG9       0.055200
     75 H212         4.0360     1.8230    -3.0980 hc         1 QG9       0.055200
     76 H23          5.3350     3.7540    -2.8500 ha         1 QG9       0.130000
     77 H27          1.3380     3.7410    -1.3210 ha         1 QG9       0.130000
     78 H24          5.4450     6.1860    -2.5380 ha         1 QG9       0.126500
     79 H25          3.5100     7.4090    -1.5830 ha         1 QG9       0.126000
     80 H26          1.4580     6.1550    -0.9780 ha         1 QG9       0.126500
     81 H50         -8.1750     2.3450    -0.4120 ha         1 QG9       0.147000
     82 H54         -7.4040    -1.3590     1.6270 ha         1 QG9       0.147000
     83 H30         -6.0580     0.0280     2.8330 ha         1 QG9       0.137000
     84 H34         -5.9570     2.0550    -0.9450 ha         1 QG9       0.137000
     85 H31         -3.7450     0.7060     3.2490 ha         1 QG9       0.137000
     86 H33         -3.6410     2.7190    -0.5210 ha         1 QG9       0.137000
     87 H351        -1.9250     3.1920     1.4540 h1         1 QG9       0.046700
     88 H352        -1.8140     1.9240     2.6720 h1         1 QG9       0.046700
     89 H37         -1.4240    -0.4090     1.6690 hn         1 QG9       0.302500
     90 H39         -2.6460    -2.1790     1.0620 h1         1 QG9       0.083700
     91 H40         -3.4620    -2.1560    -1.7640 hn         1 QG9       0.346500
     92 H431        -7.3510    -3.7130    -1.8610 h1         1 QG9       0.047367
     93 H432        -6.6680    -4.6310    -0.5080 h1         1 QG9       0.047367
     94 H433        -7.3520    -3.0150    -0.2330 h1         1 QG9       0.047367
     95 H461        -0.3200    -2.7160     1.7680 hc         1 QG9       0.039700
     96 H462         0.7740    -3.5060     0.6410 hc         1 QG9       0.039700
     97 H463         0.4610    -1.7900     0.4790 hc         1 QG9       0.039700
     98 H471        -2.4710    -4.8190    -0.5160 hc         1 QG9       0.039700
     99 H472        -0.8500    -5.2120     0.0400 hc         1 QG9       0.039700
    100 H473        -2.0260    -4.5450     1.1710 hc         1 QG9       0.039700
    101 H481        -0.2620    -2.1030    -1.9380 hc         1 QG9       0.039700
    102 H482         0.1020    -3.8170    -1.7940 hc         1 QG9       0.039700
    103 H483        -1.4820    -3.3100    -2.3600 hc         1 QG9       0.039700
    104 H51        -10.4640     1.5470    -0.7950 h4         1 QG9       0.017600
    105 H53         -9.7400    -1.9770     1.1840 h4         1 QG9       0.017600
@<TRIPOS>BOND
     1     1     2 2   
     2     1     5 1   
     3     1    52 1   
     4     3     4 1   
     5     3    16 1   
     6     3    52 1   
     7     3    55 1   
     8     4     5 1   
     9     4    56 1   
    10     4    57 1   
    11     5     6 1   
    12     6     7 1   
    13     6    10 1   
    14     6    59 1   
    15     7     8 ar  
    16     7    15 ar  
    17     8     9 1   
    18     8    12 ar  
    19     9    10 1   
    20     9    62 1   
    21     9    63 1   
    22    10    11 1   
    23    10    60 1   
    24    11    65 1   
    25    12    13 ar  
    26    12    64 1   
    27    13    14 ar  
    28    13    66 1   
    29    14    15 ar  
    30    14    67 1   
    31    15    61 1   
    32    16    58 1   
    33    17    18 1   
    34    17    54 1   
    35    17    68 1   
    36    17    69 1   
    37    18    34 1   
    38    18    70 1   
    39    18    71 1   
    40    19    20 1   
    41    19    52 1   
    42    19    74 1   
    43    19    75 1   
    44    20    21 ar  
    45    20    25 ar  
    46    21    22 ar  
    47    21    77 1   
    48    22    23 ar  
    49    22    80 1   
    50    23    24 ar  
    51    23    79 1   
    52    24    25 ar  
    53    24    78 1   
    54    25    76 1   
    55    26    27 1   
    56    26    48 ar  
    57    26    53 ar  
    58    27    28 ar  
    59    27    32 ar  
    60    28    29 ar  
    61    28    83 1   
    62    29    30 ar  
    63    29    85 1   
    64    30    31 ar  
    65    30    33 1   
    66    31    32 ar  
    67    31    86 1   
    68    32    84 1   
    69    33    34 1   
    70    33    87 1   
    71    33    88 1   
    72    34    35 1   
    73    35    36 1   
    74    35    89 1   
    75    36    37 1   
    76    36    47 2   
    77    37    38 1   
    78    37    43 1   
    79    37    90 1   
    80    38    39 1   
    81    38    91 1   
    82    39    40 1   
    83    39    42 2   
    84    40    41 1   
    85    41    92 1   
    86    41    93 1   
    87    41    94 1   
    88    43    44 1   
    89    43    45 1   
    90    43    46 1   
    91    44    95 1   
    92    44    96 1   
    93    44    97 1   
    94    45    98 1   
    95    45    99 1   
    96    45   100 1   
    97    46   101 1   
    98    46   102 1   
    99    46   103 1   
   100    48    49 ar  
   101    48    82 1   
   102    49    50 ar  
   103    49   105 1   
   104    50    51 ar  
   105    51    53 ar  
   106    51   104 1   
   107    52    54 1   
   108    53    81 1   
   109    54    72 1   
   110    54    73 1   
@<TRIPOS>SUBSTRUCTURE
     1 QG9         1 TEMP              0 ****  ****    0 ROOT
