@<TRIPOS>MOLECULE
QG9
  105   110     1     0     0
SMALL
No Charge or Current Charge


@<TRIPOS>ATOM
      1 C1           5.1570     1.4220    -0.5220 c          1 QG9       0.567000
      2 O2           5.8740     2.4120    -0.4710 o          1 QG9      -0.536000
      3 C4           3.8640    -0.3270    -1.5780 c5         1 QG9       0.154300
      4 C5           4.6000    -1.0320    -0.3880 c5         1 QG9       0.066000
      5 N6           5.4840     0.1380    -0.0130 n          1 QG9      -0.397800
      6 C7           6.7760    -0.1240     0.6930 c5         1 QG9       0.176000
      7 C8           6.5500    -1.1960     1.7300 ca         1 QG9      -0.119300
      8 C9           7.1070    -2.4090     1.3710 ca         1 QG9      -0.077300
      9 C10          7.7800    -2.3720     0.0220 c5         1 QG9      -0.075100
     10 C11          7.8310    -0.8220    -0.2890 c5         1 QG9       0.149300
     11 O12          7.6350    -0.5500    -1.6840 oh         1 QG9      -0.638000
     12 C13          6.9930    -3.5290     2.2100 ca         1 QG9      -0.101000
     13 C14          6.3060    -3.4000     3.4330 ca         1 QG9      -0.101000
     14 C15          5.7400    -2.1620     3.8000 ca         1 QG9      -0.116000
     15 C16          5.8600    -1.0490     2.9450 ca         1 QG9      -0.078000
     16 O17          2.6250    -0.9490    -1.9200 oh         1 QG9      -0.640000
     17 C18          1.2210     1.1370    -0.1950 c3         1 QG9      -0.070400
     18 C19          0.2880     1.7730     0.8610 c3         1 QG9       0.155800
     19 C21          3.4700     2.1280    -2.3650 c3         1 QG9      -0.008100
     20 C22          3.3720     3.6390    -2.1160 ca         1 QG9      -0.070300
     21 C27          2.1380     4.2410    -1.7900 ca         1 QG9      -0.094500
     22 C26          2.0510     5.6280    -1.5850 ca         1 QG9      -0.114500
     23 C25          3.1940     6.4330    -1.7200 ca         1 QG9      -0.109000
     24 C24          4.4210     5.8480    -2.0700 ca         1 QG9      -0.114500
     25 C23          4.5070     4.4600    -2.2740 ca         1 QG9      -0.094500
     26 C28         -7.6040     0.4320     0.7320 cp         1 QG9       0.010000
     27 C29         -6.2070     0.9320     0.9430 cp         1 QG9      -0.042000
     28 C30         -5.5190     0.6940     2.1590 ca         1 QG9      -0.092000
     29 C31         -4.2020     1.1420     2.3520 ca         1 QG9      -0.092500
     30 C32         -3.5330     1.8460     1.3330 ca         1 QG9      -0.085300
     31 C33         -4.2040     2.1030     0.1230 ca         1 QG9      -0.092500
     32 C34         -5.5210     1.6520    -0.0690 ca         1 QG9      -0.092000
     33 C35         -2.0710     2.2570     1.5110 c3         1 QG9       0.195100
     34 N36         -1.1460     1.4770     0.6500 n3         1 QG9      -0.451600
     35 N37         -1.4350     0.0750     0.7050 ns         1 QG9      -0.389300
     36 C38         -2.0170    -0.6140    -0.3580 c          1 QG9       0.611100
     37 C39         -2.5650    -2.0320    -0.0060 c3         1 QG9       0.051700
     38 N40         -3.7230    -2.3170    -0.8870 ns         1 QG9      -0.489900
     39 C41         -4.9390    -2.7750    -0.4730 c          1 QG9       0.643100
     40 O42         -5.7530    -2.8870    -1.5590 os         1 QG9      -0.453100
     41 C43         -7.0950    -3.3570    -1.3440 c3         1 QG9       0.170900
     42 O44         -5.2410    -3.0390     0.6790 o          1 QG9      -0.554000
     43 C45         -1.4840    -3.1770    -0.0670 c3         1 QG9      -0.049000
     44 C46         -0.3520    -2.9190     0.9660 c3         1 QG9      -0.089433
     45 C47         -2.1340    -4.5460     0.2790 c3         1 QG9      -0.089433
     46 C48         -0.8500    -3.2710    -1.4840 c3         1 QG9      -0.089433
     47 O49         -2.1370    -0.1170    -1.4760 o          1 QG9      -0.572100
     48 C54         -8.0750    -0.7540     1.3450 ca         1 QG9      -0.157500
     49 C53         -9.3910    -1.1890     1.1230 ca         1 QG9       0.329900
     50 N52        -10.2630    -0.5240     0.3330 nb         1 QG9      -0.665000
     51 C51         -9.8300     0.6110    -0.2600 ca         1 QG9       0.329900
     52 C3           3.7420     1.1990    -1.1290 c5         1 QG9      -0.107000
     53 C50         -8.5310     1.1150    -0.0910 ca         1 QG9      -0.157500
     54 C20          2.7160     1.4800     0.0370 c3         1 QG9      -0.059400
     55 H4           4.5290    -0.3710    -2.4530 h1         1 QG9       0.045700
     56 H51C         3.9200    -1.3010     0.4300 h1         1 QG9       0.052200
     57 H52C         5.1570    -1.9170    -0.7160 h1         1 QG9       0.052200
     58 H17          2.8390    -1.8360    -2.2820 ho         1 QG9       0.447000
     59 H7           7.1890     0.7880     1.1450 h1         1 QG9       0.100700
     60 H11          8.8260    -0.4600     0.0040 h1         1 QG9       0.041700
     61 H16          5.4220    -0.0920     3.2200 ha         1 QG9       0.122000
     62 H101         8.7830    -2.8130     0.0420 hc         1 QG9       0.059200
     63 H102         7.2000    -2.9250    -0.7250 hc         1 QG9       0.059200
     64 H13          7.4260    -4.4830     1.9190 ha         1 QG9       0.116000
     65 H12          8.3790    -0.9760    -2.1650 ho         1 QG9       0.444000
     66 H14          6.2100    -4.2590     4.0940 ha         1 QG9       0.114000
     67 H15          5.2080    -2.0660     4.7440 ha         1 QG9       0.115000
     68 H181         1.0980     0.0500    -0.1560 hc         1 QG9       0.066700
     69 H182         0.8990     1.4540    -1.1920 hc         1 QG9       0.066700
     70 H191         0.5960     1.4310     1.8580 h1         1 QG9       0.034700
     71 H192         0.4380     2.8610     0.8320 h1         1 QG9       0.034700
     72 H201         2.7870     2.5380     0.3170 hc         1 QG9       0.046200
     73 H202         3.0270     0.9400     0.9410 hc         1 QG9       0.046200
     74 H211         2.5470     1.7990    -2.8580 hc         1 QG9       0.055200
     75 H212         4.2520     1.9500    -3.1130 hc         1 QG9       0.055200
     76 H23          5.4620     4.0230    -2.5560 ha         1 QG9       0.112000
     77 H27          1.2390     3.6380    -1.6990 ha         1 QG9       0.112000
     78 H24          5.3060     6.4700    -2.1870 ha         1 QG9       0.108500
     79 H25          3.1260     7.5070    -1.5630 ha         1 QG9       0.108000
     80 H26          1.0960     6.0800    -1.3270 ha         1 QG9       0.108500
     81 H50         -8.2580     2.0410    -0.5880 ha         1 QG9       0.129000
     82 H54         -7.4250    -1.3510     1.9780 ha         1 QG9       0.129000
     83 H30         -6.0100     0.1580     2.9670 ha         1 QG9       0.119000
     84 H34         -6.0030     1.8420    -1.0240 ha         1 QG9       0.119000
     85 H31         -3.6960     0.9280     3.2910 ha         1 QG9       0.119000
     86 H33         -3.6920     2.6280    -0.6800 ha         1 QG9       0.119000
     87 H351        -1.9730     3.3270     1.2870 h1         1 QG9       0.046700
     88 H352        -1.7930     2.1240     2.5650 h1         1 QG9       0.046700
     89 H37         -1.3700    -0.4120     1.5940 hn         1 QG9       0.302500
     90 H39         -2.9350    -1.9660     1.0260 h1         1 QG9       0.083700
     91 H40         -3.6450    -2.1070    -1.8740 hn         1 QG9       0.346500
     92 H431        -7.6380    -3.4090    -2.2960 h1         1 QG9       0.047367
     93 H432        -7.0930    -4.3590    -0.8970 h1         1 QG9       0.047367
     94 H433        -7.6440    -2.6800    -0.6780 h1         1 QG9       0.047367
     95 H461        -0.7630    -2.7780     1.9740 hc         1 QG9       0.039700
     96 H462         0.3430    -3.7670     1.0050 hc         1 QG9       0.039700
     97 H463         0.2390    -2.0340     0.7070 hc         1 QG9       0.039700
     98 H471        -2.8800    -4.8400    -0.4700 hc         1 QG9       0.039700
     99 H472        -1.3800    -5.3420     0.3160 hc         1 QG9       0.039700
    100 H473        -2.6310    -4.5080     1.2560 hc         1 QG9       0.039700
    101 H481        -0.3340    -2.3420    -1.7530 hc         1 QG9       0.039700
    102 H482        -0.1130    -4.0820    -1.5270 hc         1 QG9       0.039700
    103 H483        -1.6100    -3.4710    -2.2480 hc         1 QG9       0.039700
    104 H51        -10.5500     1.1340    -0.8890 h4         1 QG9       0.017600
    105 H53         -9.7580    -2.1040     1.5870 h4         1 QG9       0.017600
@<TRIPOS>BOND
     1     1     2 2   
     2     1     5 1   
     3     1    52 1   
     4     3     4 1   
     5     3    16 1   
     6     3    52 1   
     7     3    55 1   
     8     4     5 1   
     9     4    56 1   
    10     4    57 1   
    11     5     6 1   
    12     6     7 1   
    13     6    10 1   
    14     6    59 1   
    15     7     8 ar  
    16     7    15 ar  
    17     8     9 1   
    18     8    12 ar  
    19     9    10 1   
    20     9    62 1   
    21     9    63 1   
    22    10    11 1   
    23    10    60 1   
    24    11    65 1   
    25    12    13 ar  
    26    12    64 1   
    27    13    14 ar  
    28    13    66 1   
    29    14    15 ar  
    30    14    67 1   
    31    15    61 1   
    32    16    58 1   
    33    17    18 1   
    34    17    54 1   
    35    17    68 1   
    36    17    69 1   
    37    18    34 1   
    38    18    70 1   
    39    18    71 1   
    40    19    20 1   
    41    19    52 1   
    42    19    74 1   
    43    19    75 1   
    44    20    21 ar  
    45    20    25 ar  
    46    21    22 ar  
    47    21    77 1   
    48    22    23 ar  
    49    22    80 1   
    50    23    24 ar  
    51    23    79 1   
    52    24    25 ar  
    53    24    78 1   
    54    25    76 1   
    55    26    27 1   
    56    26    48 ar  
    57    26    53 ar  
    58    27    28 ar  
    59    27    32 ar  
    60    28    29 ar  
    61    28    83 1   
    62    29    30 ar  
    63    29    85 1   
    64    30    31 ar  
    65    30    33 1   
    66    31    32 ar  
    67    31    86 1   
    68    32    84 1   
    69    33    34 1   
    70    33    87 1   
    71    33    88 1   
    72    34    35 1   
    73    35    36 1   
    74    35    89 1   
    75    36    37 1   
    76    36    47 2   
    77    37    38 1   
    78    37    43 1   
    79    37    90 1   
    80    38    39 1   
    81    38    91 1   
    82    39    40 1   
    83    39    42 2   
    84    40    41 1   
    85    41    92 1   
    86    41    93 1   
    87    41    94 1   
    88    43    44 1   
    89    43    45 1   
    90    43    46 1   
    91    44    95 1   
    92    44    96 1   
    93    44    97 1   
    94    45    98 1   
    95    45    99 1   
    96    45   100 1   
    97    46   101 1   
    98    46   102 1   
    99    46   103 1   
   100    48    49 ar  
   101    48    82 1   
   102    49    50 ar  
   103    49   105 1   
   104    50    51 ar  
   105    51    53 ar  
   106    51   104 1   
   107    52    54 1   
   108    53    81 1   
   109    54    72 1   
   110    54    73 1   
@<TRIPOS>SUBSTRUCTURE
     1 QG9         1 TEMP              0 ****  ****    0 ROOT
