@<TRIPOS>MOLECULE
QGA
   58    58     1     0     0
SMALL
No Charge or Current Charge


@<TRIPOS>ATOM
      1 C9          69.0440    -3.6760    42.7890 c6         1 QGA      -0.073400
      2 C12         68.6030    -4.5630    43.9770 c6         1 QGA      -0.074400
      3 C15         67.9710    -3.7090    45.1010 c6         1 QGA      -0.073400
      4 C18         66.7880    -2.8650    44.5640 c6         1 QGA      -0.071400
      5 C21         67.2180    -1.9620    43.3720 c6         1 QGA      -0.062700
      6 C24         66.0120    -1.1140    42.8620 c3         1 QGA      -0.063400
      7 C27         66.3550    -0.0540    41.7820 c3         1 QGA      -0.151400
      8 C30         65.1910     0.8670    41.3470 c          1 QGA       0.607100
      9 N33         65.3980     1.7870    40.2850 n          1 QGA      -0.412800
     10 O34         64.1020     0.7920    41.9040 o          1 QGA      -0.597100
     11 C35         66.6850     1.8870    39.5440 c3         1 QGA       0.099000
     12 C36         64.3160     2.7270    39.8720 c3         1 QGA       0.106000
     13 C37         64.5010     4.1930    40.3640 c3         1 QGA       0.161300
     14 C40         63.3110     5.1240    39.9510 c3         1 QGA       0.142300
     15 C41         63.4790     6.6170    40.4130 c3         1 QGA       0.132300
     16 C42         62.2730     7.5200    39.9740 c3         1 QGA       0.141300
     17 C43         62.4270     9.0170    40.3540 c3         1 QGA       0.123600
     18 O44         61.4650     9.7930    39.6060 oh         1 QGA      -0.736000
     19 O47         64.6610     4.2260    41.7930 oh         1 QGA      -0.713000
     20 O49         63.1380     5.0970    38.5230 oh         1 QGA      -0.733000
     21 O51         63.6420     6.6710    41.8510 oh         1 QGA      -0.728000
     22 O53         62.0970     7.5020    38.5470 oh         1 QGA      -0.750000
     23 C60         66.7170     1.0310    38.2560 c3         1 QGA       0.133600
     24 O63         67.9850     1.1680    37.5990 oh         1 QGA      -0.670000
     25 C1          67.8650    -2.8270    42.2500 c6         1 QGA      -0.071400
     26 H9C1        69.4470    -4.3060    41.9840 hc         1 QGA       0.037200
     27 H9C2        69.8610    -3.0140    43.1050 hc         1 QGA       0.037200
     28 H121        69.4660    -5.1170    44.3700 hc         1 QGA       0.037700
     29 H122        67.8790    -5.3140    43.6310 hc         1 QGA       0.037700
     30 H1C1        67.1080    -3.4880    41.8050 hc         1 QGA       0.038200
     31 H1C2        68.2370    -2.1880    41.4380 hc         1 QGA       0.038200
     32 H151        68.7320    -3.0450    45.5350 hc         1 QGA       0.037200
     33 H152        67.6240    -4.3610    45.9140 hc         1 QGA       0.037200
     34 H181        66.3850    -2.2460    45.3780 hc         1 QGA       0.038200
     35 H182        65.9740    -3.5340    44.2500 hc         1 QGA       0.038200
     36 H21         67.9690    -1.2460    43.7380 hc         1 QGA       0.042700
     37 H241        65.5610    -0.5920    43.7160 hc         1 QGA       0.055700
     38 H242        65.2330    -1.7790    42.4670 hc         1 QGA       0.055700
     39 H271        66.7760    -0.5120    40.8820 hc         1 QGA       0.056700
     40 H272        67.1790     0.5880    42.1120 hc         1 QGA       0.056700
     41 H351        67.5280     1.6110    40.1880 h1         1 QGA       0.061200
     42 H352        66.8470     2.9340    39.2610 h1         1 QGA       0.061200
     43 H361        63.3400     2.3600    40.2160 h1         1 QGA       0.075700
     44 H362        64.2700     2.7320    38.7760 h1         1 QGA       0.075700
     45 H601        65.9060     1.3550    37.5900 h1         1 QGA       0.029200
     46 H602        66.5360    -0.0200    38.5180 h1         1 QGA       0.029200
     47 H37         65.4100     4.5950    39.8960 h1         1 QGA       0.028700
     48 H40         62.4010     4.7330    40.4290 h1         1 QGA       0.062700
     49 H47         64.3170     5.1290    42.0500 ho         1 QGA       0.518000
     50 H41         64.3860     7.0110    39.9330 h1         1 QGA       0.052700
     51 H49         62.6990     5.9790    38.3200 ho         1 QGA       0.538000
     52 H42         61.3650     7.1400    40.4640 h1         1 QGA       0.069700
     53 H51         63.8930     7.5940    42.0960 ho         1 QGA       0.512000
     54 H431        63.4480     9.3510    40.1240 h1         1 QGA       0.038200
     55 H432        62.2660     9.1360    41.4340 h1         1 QGA       0.038200
     56 H53         61.7010     8.4050    38.3940 ho         1 QGA       0.538000
     57 H44         61.4980    10.7170    39.9570 ho         1 QGA       0.514000
     58 H63         67.9520     0.6120    36.7880 ho         1 QGA       0.446000
@<TRIPOS>BOND
     1     1     2 1   
     2     1    25 1   
     3     1    26 1   
     4     1    27 1   
     5     2     3 1   
     6     2    28 1   
     7     2    29 1   
     8     3     4 1   
     9     3    32 1   
    10     3    33 1   
    11     4     5 1   
    12     4    34 1   
    13     4    35 1   
    14     5     6 1   
    15     5    25 1   
    16     5    36 1   
    17     6     7 1   
    18     6    37 1   
    19     6    38 1   
    20     7     8 1   
    21     7    39 1   
    22     7    40 1   
    23     8     9 1   
    24     8    10 2   
    25     9    11 1   
    26     9    12 1   
    27    11    23 1   
    28    11    41 1   
    29    11    42 1   
    30    12    13 1   
    31    12    43 1   
    32    12    44 1   
    33    13    14 1   
    34    13    19 1   
    35    13    47 1   
    36    14    15 1   
    37    14    20 1   
    38    14    48 1   
    39    15    16 1   
    40    15    21 1   
    41    15    50 1   
    42    16    17 1   
    43    16    22 1   
    44    16    52 1   
    45    17    18 1   
    46    17    54 1   
    47    17    55 1   
    48    18    57 1   
    49    19    49 1   
    50    20    51 1   
    51    21    53 1   
    52    22    56 1   
    53    23    24 1   
    54    23    45 1   
    55    23    46 1   
    56    24    58 1   
    57    25    30 1   
    58    25    31 1   
@<TRIPOS>SUBSTRUCTURE
     1 QGA         1 TEMP              0 ****  ****    0 ROOT
