@<TRIPOS>MOLECULE
QGA
   58    58     1     0     0
SMALL
abcg2


@<TRIPOS>ATOM
      1 C9          68.9420    -3.5880    42.6010 c6         1 QGA      -0.073400
      2 C12         68.5210    -4.5180    43.7390 c6         1 QGA      -0.074400
      3 C15         67.9190    -3.7250    44.9010 c6         1 QGA      -0.073400
      4 C18         66.7620    -2.8420    44.4310 c6         1 QGA      -0.071400
      5 C21         67.1700    -1.8990    43.2930 c6         1 QGA      -0.062700
      6 C24         65.9810    -1.0400    42.8530 c3         1 QGA      -0.063400
      7 C27         66.3610     0.0780    41.8910 c3         1 QGA      -0.151400
      8 C30         65.1820     0.9470    41.4770 c          1 QGA       0.607100
      9 N33         65.4090     1.8800    40.5130 n          1 QGA      -0.412800
     10 O34         64.0760     0.8100    42.0050 o          1 QGA      -0.597100
     11 C35         66.6760     2.0110    39.8050 c3         1 QGA       0.099000
     12 C36         64.3240     2.7480    40.0610 c3         1 QGA       0.106000
     13 C37         64.4650     4.1810    40.5670 c3         1 QGA       0.161300
     14 C40         63.3330     5.0640    40.0180 c3         1 QGA       0.142300
     15 C41         63.5580     6.5650    40.2940 c3         1 QGA       0.132300
     16 C42         62.3290     7.4170    39.9560 c3         1 QGA       0.141300
     17 C43         62.5790     8.9030    40.1390 c3         1 QGA       0.123600
     18 O44         61.3680     9.5690    39.7650 oh         1 QGA      -0.736000
     19 O47         64.4440     4.1440    41.9900 oh         1 QGA      -0.713000
     20 O49         63.2660     4.8460    38.6110 oh         1 QGA      -0.733000
     21 O51         63.8520     6.7510    41.6880 oh         1 QGA      -0.728000
     22 O53         61.9560     7.1660    38.5960 oh         1 QGA      -0.750000
     23 C60         66.7210     1.1510    38.5480 c3         1 QGA       0.133600
     24 O63         67.9770     1.3930    37.9140 oh         1 QGA      -0.670000
     25 C1          67.7820    -2.7030    42.1380 c6         1 QGA      -0.071400
     26 H9C1        69.3280    -4.1700    41.7590 hc         1 QGA       0.037200
     27 H9C2        69.7640    -2.9490    42.9440 hc         1 QGA       0.037200
     28 H121        69.3760    -5.1070    44.0840 hc         1 QGA       0.037700
     29 H122        67.7750    -5.2290    43.3670 hc         1 QGA       0.037700
     30 H1C1        66.9980    -3.3330    41.6990 hc         1 QGA       0.038200
     31 H1C2        68.1260    -2.0330    41.3470 hc         1 QGA       0.038200
     32 H151        68.6970    -3.0920    45.3440 hc         1 QGA       0.037200
     33 H152        67.5800    -4.4030    45.6880 hc         1 QGA       0.037200
     34 H181        66.3680    -2.2570    45.2670 hc         1 QGA       0.038200
     35 H182        65.9420    -3.4810    44.0800 hc         1 QGA       0.038200
     36 H21         67.9480    -1.2280    43.6820 hc         1 QGA       0.042700
     37 H241        65.5100    -0.6060    43.7370 hc         1 QGA       0.055700
     38 H242        65.2270    -1.6830    42.3880 hc         1 QGA       0.055700
     39 H271        66.8320    -0.3340    40.9990 hc         1 QGA       0.056700
     40 H272        67.1130     0.7250    42.3560 hc         1 QGA       0.056700
     41 H351        67.5080     1.7580    40.4580 h1         1 QGA       0.061200
     42 H352        66.8050     3.0570    39.5230 h1         1 QGA       0.061200
     43 H361        63.3860     2.3320    40.4200 h1         1 QGA       0.075700
     44 H362        64.3090     2.7550    38.9740 h1         1 QGA       0.075700
     45 H601        65.8930     1.4180    37.8840 h1         1 QGA       0.029200
     46 H602        66.6170     0.0940    38.8140 h1         1 QGA       0.029200
     47 H37         65.4180     4.5990    40.2170 h1         1 QGA       0.028700
     48 H40         62.3980     4.7500    40.5030 h1         1 QGA       0.062700
     49 H47         64.3910     5.0700    42.2780 ho         1 QGA       0.518000
     50 H41         64.4100     6.8880    39.6880 h1         1 QGA       0.052700
     51 H49         62.6630     5.5170    38.2500 ho         1 QGA       0.538000
     52 H42         61.5120     7.1090    40.6200 h1         1 QGA       0.069700
     53 H51         64.5060     7.4540    41.7830 ho         1 QGA       0.512000
     54 H431        63.4060     9.2150    39.4930 h1         1 QGA       0.038200
     55 H432        62.8340     9.1210    41.1790 h1         1 QGA       0.038200
     56 H53         61.2750     7.8120    38.3600 ho         1 QGA       0.538000
     57 H44         61.5690    10.4920    39.5720 ho         1 QGA       0.514000
     58 H63         68.0000     0.9000    37.0850 ho         1 QGA       0.446000
@<TRIPOS>BOND
     1     1     2 1   
     2     1    25 1   
     3     1    26 1   
     4     1    27 1   
     5     2     3 1   
     6     2    28 1   
     7     2    29 1   
     8     3     4 1   
     9     3    32 1   
    10     3    33 1   
    11     4     5 1   
    12     4    34 1   
    13     4    35 1   
    14     5     6 1   
    15     5    25 1   
    16     5    36 1   
    17     6     7 1   
    18     6    37 1   
    19     6    38 1   
    20     7     8 1   
    21     7    39 1   
    22     7    40 1   
    23     8     9 1   
    24     8    10 2   
    25     9    11 1   
    26     9    12 1   
    27    11    23 1   
    28    11    41 1   
    29    11    42 1   
    30    12    13 1   
    31    12    43 1   
    32    12    44 1   
    33    13    14 1   
    34    13    19 1   
    35    13    47 1   
    36    14    15 1   
    37    14    20 1   
    38    14    48 1   
    39    15    16 1   
    40    15    21 1   
    41    15    50 1   
    42    16    17 1   
    43    16    22 1   
    44    16    52 1   
    45    17    18 1   
    46    17    54 1   
    47    17    55 1   
    48    18    57 1   
    49    19    49 1   
    50    20    51 1   
    51    21    53 1   
    52    22    56 1   
    53    23    24 1   
    54    23    45 1   
    55    23    46 1   
    56    24    58 1   
    57    25    30 1   
    58    25    31 1   
@<TRIPOS>SUBSTRUCTURE
     1 QGA         1 TEMP              0 ****  ****    0 ROOT
