@<TRIPOS>MOLECULE
QGB
   54    57     1     0     0
SMALL
No Charge or Current Charge


@<TRIPOS>ATOM
      1 C25          6.4900   -12.2540    -7.1090 ca         1 QGB      -0.101500
      2 C14         12.4110    -3.6330    -8.9230 cc         1 QGB       0.699400
      3 C20          7.6340    -8.5890    -7.1780 c3         1 QGB      -0.062100
      4 C21          7.5880   -10.0940    -7.4110 ca         1 QGB      -0.076300
      5 C22          8.5990   -10.7240    -8.1630 ca         1 QGB      -0.101500
      6 C23          8.5560   -12.1120    -8.3870 ca         1 QGB      -0.101500
      7 C10         11.3400    -5.8430    -8.4250 c6         1 QGB       0.210800
      8 C12         10.3680    -3.7660    -7.4730 c6         1 QGB       0.210800
      9 C01          3.8100    -5.7550    -6.8800 c3         1 QGB      -0.089100
     10 C02          4.9240    -6.1520    -7.8770 c6         1 QGB       0.165300
     11 C04          5.8510    -8.0790    -8.9670 c6         1 QGB       0.156600
     12 C05          7.2910    -7.7470    -8.4550 c6         1 QGB       0.157500
     13 C07          6.3440    -5.7160    -7.3910 c6         1 QGB       0.137800
     14 C08          8.8250    -5.7930    -7.8620 c6         1 QGB       0.198500
     15 C09          9.9330    -6.3490    -8.8090 c6         1 QGB      -0.086400
     16 C13          8.9440    -4.2390    -7.8400 c6         1 QGB      -0.086400
     17 C17         14.1480    -3.0570    -9.8970 cd         1 QGB       0.770900
     18 C24          7.5010   -12.8750    -7.8590 ca         1 QGB       0.119000
     19 C26          6.5330   -10.8660    -6.8840 ca         1 QGB      -0.101500
     20 N06          7.4440    -6.2500    -8.2730 n3         1 QGB      -0.734600
     21 N11         11.3740    -4.3600    -8.3870 nh         1 QGB      -0.755300
     22 N15         12.5660    -2.2710    -8.8750 na         1 QGB      -0.247700
     23 N16         13.7100    -1.8850    -9.5190 nc         1 QGB      -0.601800
     24 N18         13.4190    -4.1460    -9.5860 nd         1 QGB      -0.797000
     25 N19         15.2550    -3.1900   -10.5940 nv         1 QGB      -1.006900
     26 O03          4.8550    -7.5850    -8.0420 os         1 QGB      -0.452000
     27 Cl1          7.4470   -14.6100    -8.1400 cl         1 QGB      -0.205000
     28 H1           5.6750   -12.8470    -6.7030 ha         1 QGB       0.129500
     29 H2           8.6370    -8.3380    -6.8170 hc         1 QGB       0.056200
     30 H3           6.9570    -8.3210    -6.3580 hc         1 QGB       0.056200
     31 H4           9.4200   -10.1400    -8.5740 ha         1 QGB       0.118500
     32 H5           9.3380   -12.5950    -8.9670 ha         1 QGB       0.129500
     33 H6          11.6130    -6.2460    -7.4380 h1         1 QGB       0.048200
     34 H7          12.0620    -6.2480    -9.1480 h1         1 QGB       0.048200
     35 H8          10.5900    -4.0600    -6.4370 h1         1 QGB       0.048200
     36 H9          10.3890    -2.6680    -7.5050 h1         1 QGB       0.048200
     37 H10          3.7840    -4.6680    -6.7360 hc         1 QGB       0.044700
     38 H11          2.8250    -6.0650    -7.2470 hc         1 QGB       0.044700
     39 H12          3.9690    -6.2190    -5.9000 hc         1 QGB       0.044700
     40 H13          4.7130    -5.6760    -8.8460 h1         1 QGB       0.044700
     41 H14          5.6920    -7.6140    -9.9510 h1         1 QGB       0.056200
     42 H15          5.7240    -9.1640    -9.0900 h1         1 QGB       0.056200
     43 H16          7.9660    -8.0890    -9.2520 h1         1 QGB       0.066700
     44 H17          6.4890    -6.0460    -6.3520 h1         1 QGB       0.038700
     45 H18          6.3440    -4.6180    -7.3810 h1         1 QGB       0.038700
     46 H19          9.0390    -6.1480    -6.8440 h1         1 QGB       0.023700
     47 H20          9.7130    -6.0650    -9.8460 hc         1 QGB       0.059450
     48 H21          9.9640    -7.4440    -8.7790 hc         1 QGB       0.059450
     49 H22          8.6610    -3.8290    -8.8190 hc         1 QGB       0.059450
     50 H23          8.2610    -3.8020    -7.1020 hc         1 QGB       0.059450
     51 H24          5.7430   -10.3920    -6.3050 ha         1 QGB       0.118500
     52 H26         11.9270    -1.6220    -8.4330 hn         1 QGB       0.373000
     53 H27         15.3350    -4.0620   -11.0960 hn         1 QGB       0.456500
     54 H28         15.5700    -2.3570   -11.0720 hn         1 QGB       0.456500
@<TRIPOS>BOND
     1     1    18 ar  
     2     1    19 ar  
     3     1    28 1   
     4     2    21 1   
     5     2    22 1   
     6     2    24 2   
     7     3     4 1   
     8     3    12 1   
     9     3    29 1   
    10     3    30 1   
    11     4     5 ar  
    12     4    19 ar  
    13     5     6 ar  
    14     5    31 1   
    15     6    18 ar  
    16     6    32 1   
    17     7    15 1   
    18     7    21 1   
    19     7    33 1   
    20     7    34 1   
    21     8    16 1   
    22     8    21 1   
    23     8    35 1   
    24     8    36 1   
    25     9    10 1   
    26     9    37 1   
    27     9    38 1   
    28     9    39 1   
    29    10    13 1   
    30    10    26 1   
    31    10    40 1   
    32    11    12 1   
    33    11    26 1   
    34    11    41 1   
    35    11    42 1   
    36    12    20 1   
    37    12    43 1   
    38    13    20 1   
    39    13    44 1   
    40    13    45 1   
    41    14    15 1   
    42    14    16 1   
    43    14    20 1   
    44    14    46 1   
    45    15    47 1   
    46    15    48 1   
    47    16    49 1   
    48    16    50 1   
    49    17    23 2   
    50    17    24 1   
    51    17    25 1   
    52    18    27 1   
    53    19    51 1   
    54    22    23 1   
    55    22    52 1   
    56    25    53 1   
    57    25    54 1   
@<TRIPOS>SUBSTRUCTURE
     1 QGB         1 TEMP              0 ****  ****    0 ROOT
