@<TRIPOS>MOLECULE
QGB
   54    57     1     0     0
SMALL
bcc


@<TRIPOS>ATOM
      1 C25          6.7700   -12.2320    -7.3110 ca         1 QGB      -0.119500
      2 C14         12.2930    -3.7860    -9.0310 cc         1 QGB       0.699400
      3 C20          7.6030    -8.5240    -7.1330 c3         1 QGB      -0.062100
      4 C21          7.6910    -9.9910    -7.4360 ca         1 QGB      -0.076300
      5 C22          8.7530   -10.5020    -8.1820 ca         1 QGB      -0.119500
      6 C23          8.8360   -11.8500    -8.4940 ca         1 QGB      -0.119500
      7 C10         11.0810    -5.8160    -8.6390 c6         1 QGB       0.210800
      8 C12         10.0910    -3.6570    -8.0430 c6         1 QGB       0.210800
      9 C01          3.9190    -5.7430    -6.5610 c3         1 QGB      -0.089100
     10 C02          4.9210    -6.1530    -7.6180 c6         1 QGB       0.142100
     11 C04          5.7420    -7.9940    -8.7750 c6         1 QGB       0.133400
     12 C05          7.1780    -7.6960    -8.3670 c6         1 QGB       0.157500
     13 C07          6.3390    -5.7580    -7.2330 c6         1 QGB       0.137800
     14 C08          8.6540    -5.7420    -7.9700 c6         1 QGB       0.198500
     15 C09          9.6990    -6.4040    -8.8660 c6         1 QGB      -0.086400
     16 C13          8.7050    -4.2400    -8.2550 c6         1 QGB      -0.086400
     17 C17         14.2810    -3.3930    -9.5710 cd         1 QGB       0.770900
     18 C24          7.8380   -12.7060    -8.0540 ca         1 QGB       0.027400
     19 C26          6.7060   -10.8790    -7.0100 ca         1 QGB      -0.119500
     20 N06          7.3060    -6.2530    -8.2010 n3         1 QGB      -0.734600
     21 N11         11.0860    -4.3730    -8.8190 nh         1 QGB      -0.755300
     22 N15         12.5550    -2.4860    -8.8550 na         1 QGB      -0.197400
     23 N16         13.8420    -2.2110    -9.2160 nc         1 QGB      -0.601800
     24 N18         13.3780    -4.3980    -9.4760 nd         1 QGB      -0.797000
     25 N19         15.5780    -3.6320    -9.9520 nv         1 QGB      -0.896500
     26 O03          4.8210    -7.5520    -7.8080 os         1 QGB      -0.405600
     27 CL1          7.9310   -14.3960    -8.4380 cl         1 QGB      -0.113400
     28 H1           5.9960   -12.9040    -6.9660 ha         1 QGB       0.147500
     29 H2           8.5760    -8.1720    -6.7790 hc         1 QGB       0.056200
     30 H3           6.9000    -8.3650    -6.3130 hc         1 QGB       0.056200
     31 H4           9.5400    -9.8410    -8.5260 ha         1 QGB       0.136500
     32 H5           9.6710   -12.2260    -9.0690 ha         1 QGB       0.147500
     33 H6          11.4270    -6.0750    -7.6290 h1         1 QGB       0.048200
     34 H7          11.7830    -6.2600    -9.3410 h1         1 QGB       0.048200
     35 H8          10.3450    -3.6720    -6.9740 h1         1 QGB       0.048200
     36 H9          10.0610    -2.6120    -8.3550 h1         1 QGB       0.048200
     37 H10          3.9320    -4.6600    -6.4320 hc         1 QGB       0.044700
     38 H11          2.9060    -6.0320    -6.8440 hc         1 QGB       0.044700
     39 H12          4.1500    -6.2000    -5.5970 hc         1 QGB       0.044700
     40 H13          4.6790    -5.6480    -8.5670 h1         1 QGB       0.044700
     41 H14          5.5420    -7.5130    -9.7430 h1         1 QGB       0.056200
     42 H15          5.5930    -9.0670    -8.9020 h1         1 QGB       0.056200
     43 H16          7.7940    -8.0040    -9.2170 h1         1 QGB       0.066700
     44 H17          6.5560    -6.1050    -6.2080 h1         1 QGB       0.038700
     45 H18          6.3730    -4.6690    -7.2010 h1         1 QGB       0.038700
     46 H19          8.9670    -5.9000    -6.9210 h1         1 QGB       0.023700
     47 H20          9.4080    -6.2940    -9.9150 hc         1 QGB       0.059450
     48 H21          9.7840    -7.4730    -8.6650 hc         1 QGB       0.059450
     49 H22          8.3850    -4.0700    -9.2870 hc         1 QGB       0.059450
     50 H23          8.0240    -3.6830    -7.6110 hc         1 QGB       0.059450
     51 H24          5.8670   -10.5100    -6.4320 ha         1 QGB       0.136500
     52 H26         11.9570    -1.7460    -8.5290 hn         1 QGB       0.322700
     53 H27         15.6770    -4.4020   -10.5940 hn         1 QGB       0.401300
     54 H28         16.0710    -2.8150   -10.2750 hn         1 QGB       0.401300
@<TRIPOS>BOND
     1     1    18 ar  
     2     1    19 ar  
     3     1    28 1   
     4     2    21 1   
     5     2    22 1   
     6     2    24 2   
     7     3     4 1   
     8     3    12 1   
     9     3    29 1   
    10     3    30 1   
    11     4     5 ar  
    12     4    19 ar  
    13     5     6 ar  
    14     5    31 1   
    15     6    18 ar  
    16     6    32 1   
    17     7    15 1   
    18     7    21 1   
    19     7    33 1   
    20     7    34 1   
    21     8    16 1   
    22     8    21 1   
    23     8    35 1   
    24     8    36 1   
    25     9    10 1   
    26     9    37 1   
    27     9    38 1   
    28     9    39 1   
    29    10    13 1   
    30    10    26 1   
    31    10    40 1   
    32    11    12 1   
    33    11    26 1   
    34    11    41 1   
    35    11    42 1   
    36    12    20 1   
    37    12    43 1   
    38    13    20 1   
    39    13    44 1   
    40    13    45 1   
    41    14    15 1   
    42    14    16 1   
    43    14    20 1   
    44    14    46 1   
    45    15    47 1   
    46    15    48 1   
    47    16    49 1   
    48    16    50 1   
    49    17    23 2   
    50    17    24 1   
    51    17    25 1   
    52    18    27 1   
    53    19    51 1   
    54    22    23 1   
    55    22    52 1   
    56    25    53 1   
    57    25    54 1   
@<TRIPOS>SUBSTRUCTURE
     1 QGB         1 TEMP              0 ****  ****    0 ROOT
