@<TRIPOS>MOLECULE
QGC
   49    53     1     0     0
SMALL
No Charge or Current Charge


@<TRIPOS>ATOM
      1 N1         -25.5420     8.0020    30.5750 na         1 QGC      -0.517000
      2 N3         -25.2660     9.6960    31.9520 nc         1 QGC      -0.347000
      3 C4         -23.2280     9.1380    30.5760 c3         1 QGC       0.215500
      4 C5         -24.6700     8.9520    31.0350 cd         1 QGC       0.348800
      5 C6         -26.7090     8.1970    31.2600 cd         1 QGC       0.380400
      6 C7         -22.3610     8.2400    28.3610 c6         1 QGC       0.241800
      7 C8         -22.6040     6.9630    27.5340 c6         1 QGC      -0.085400
      8 C10        -20.2650     5.9350    27.6830 c          1 QGC       0.596100
      9 C13        -16.2780     5.1770    24.4390 ca         1 QGC       0.356900
     10 C15        -15.9000     7.5880    24.5670 ca         1 QGC      -0.084000
     11 C17        -17.5810     9.0230    25.5810 ca         1 QGC      -0.095000
     12 C20        -21.9330     5.6350    29.5980 ca         1 QGC      -0.138300
     13 C21        -21.6670     4.3820    30.1880 ca         1 QGC      -0.046000
     14 O          -19.4210     6.3940    28.4460 o          1 QGC      -0.564100
     15 N4         -19.9450     5.4370    26.4290 ns         1 QGC      -0.174000
     16 C11        -18.6980     5.4320    25.7480 ca         1 QGC      -0.073000
     17 C19        -17.9400     6.6050    25.5000 ca         1 QGC      -0.002000
     18 C18        -18.3810     7.9000    25.8550 ca         1 QGC      -0.087000
     19 C16        -16.3400     8.8680    24.9430 ca         1 QGC      -0.107000
     20 C14        -16.7000     6.4610    24.8370 ca         1 QGC      -0.091000
     21 N5         -17.0100     4.0590    24.6490 nb         1 QGC      -0.651000
     22 C12        -18.1950     4.1980    25.2850 ca         1 QGC       0.308900
     23 C9         -21.7540     5.7930    28.0830 c6         1 QGC      -0.080400
     24 C3         -22.3510     6.7310    30.3990 ca         1 QGC       0.382000
     25 C2         -22.4920     6.5300    31.7900 ca         1 QGC      -0.181000
     26 C1         -22.2260     5.2790    32.3720 ca         1 QGC      -0.047000
     27 C          -21.8140     4.2060    31.5710 ca         1 QGC       0.073000
     28 Cl         -21.4800     2.6400    32.2980 cl         1 QGC      -0.220000
     29 N          -22.6310     8.0010    29.8050 nh         1 QGC      -0.820400
     30 N2         -26.5560     9.2180    32.0940 nc         1 QGC      -0.358000
     31 H1         -25.3480     7.2980    29.8780 hn         1 QGC       0.359000
     32 H2         -22.6080     9.3510    31.4560 h1         1 QGC       0.062200
     33 H3         -23.2000    10.0540    29.9700 h1         1 QGC       0.062200
     34 H4         -27.5960     7.5900    31.1140 h5         1 QGC       0.066100
     35 H5         -21.3230     8.5780    28.2260 h1         1 QGC       0.048700
     36 H6         -23.0150     9.0340    27.9700 h1         1 QGC       0.048700
     37 H7         -22.3810     7.1490    26.4750 hc         1 QGC       0.065200
     38 H8         -23.6700     6.7010    27.5870 hc         1 QGC       0.065200
     39 H10        -14.9430     7.4760    24.0610 ha         1 QGC       0.118000
     40 H11        -17.9270    10.0160    25.8610 ha         1 QGC       0.114000
     41 H12        -21.3460     3.5450    29.5740 ha         1 QGC       0.121000
     42 H13        -20.7110     5.0070    25.9250 hn         1 QGC       0.156000
     43 H14        -19.3440     8.0560    26.3320 ha         1 QGC       0.119000
     44 H15        -15.7240     9.7390    24.7330 ha         1 QGC       0.117000
     45 H16        -18.7570     3.2790    25.4480 h4         1 QGC       0.022100
     46 H17        -22.1370     4.9110    27.5490 hc         1 QGC       0.063700
     47 H18        -22.8060     7.3380    32.4410 ha         1 QGC       0.112000
     48 H19        -22.3380     5.1410    33.4450 ha         1 QGC       0.126000
     49 H9         -15.3280     5.0380    23.9250 h4         1 QGC       0.022100
@<TRIPOS>BOND
     1     1     4 1   
     2     1     5 1   
     3     1    31 1   
     4     2     4 2   
     5     2    30 1   
     6     3     4 1   
     7     3    29 1   
     8     3    32 1   
     9     3    33 1   
    10     5    30 2   
    11     5    34 1   
    12     6     7 1   
    13     6    29 1   
    14     6    35 1   
    15     6    36 1   
    16     7    23 1   
    17     7    37 1   
    18     7    38 1   
    19     8    14 2   
    20     8    15 1   
    21     8    23 1   
    22     9    20 ar  
    23     9    21 ar  
    24     9    49 1   
    25    10    19 ar  
    26    10    20 ar  
    27    10    39 1   
    28    11    18 ar  
    29    11    19 ar  
    30    11    40 1   
    31    12    13 ar  
    32    12    23 1   
    33    12    24 ar  
    34    13    27 ar  
    35    13    41 1   
    36    15    16 1   
    37    15    42 1   
    38    16    17 ar  
    39    16    22 ar  
    40    17    18 ar  
    41    17    20 ar  
    42    18    43 1   
    43    19    44 1   
    44    21    22 ar  
    45    22    45 1   
    46    23    46 1   
    47    24    25 ar  
    48    24    29 1   
    49    25    26 ar  
    50    25    47 1   
    51    26    27 ar  
    52    26    48 1   
    53    27    28 1   
@<TRIPOS>SUBSTRUCTURE
     1 QGC         1 TEMP              0 ****  ****    0 ROOT
