@<TRIPOS>MOLECULE
QGC
   49    53     1     0     0
SMALL
abcg2


@<TRIPOS>ATOM
      1 N1         -24.8000     9.5270    31.9730 na         1 QGC      -0.517000
      2 N3         -25.3100     8.2640    30.2690 nc         1 QGC      -0.347000
      3 C4         -22.8480     8.6400    30.6430 c3         1 QGC       0.215500
      4 C5         -24.3130     8.7860    30.9410 cd         1 QGC       0.348800
      5 C6         -26.1530     9.4300    31.8920 cd         1 QGC       0.380400
      6 C7         -22.3180     7.9580    28.3310 c6         1 QGC       0.241800
      7 C8         -22.5940     6.8090    27.3800 c6         1 QGC      -0.085400
      8 C10        -20.3230     5.7470    27.5430 c          1 QGC       0.596100
      9 C13        -16.0640     5.5760    24.7940 ca         1 QGC       0.356900
     10 C15        -16.0590     8.0500    24.8180 ca         1 QGC      -0.084000
     11 C17        -18.0420     9.2060    25.5600 ca         1 QGC      -0.095000
     12 C20        -22.1040     5.2380    29.2450 ca         1 QGC      -0.138300
     13 C21        -22.0210     3.9250    29.6890 ca         1 QGC      -0.046000
     14 O          -19.5590     6.2320    28.3680 o          1 QGC      -0.564100
     15 N4         -19.9270     5.3840    26.2940 ns         1 QGC      -0.174000
     16 C11        -18.6030     5.5160    25.8050 ca         1 QGC      -0.073000
     17 C19        -18.0240     6.7930    25.5820 ca         1 QGC      -0.002000
     18 C18        -18.6840     8.0210    25.8150 ca         1 QGC      -0.087000
     19 C16        -16.7190     9.2260    25.0640 ca         1 QGC      -0.107000
     20 C14        -16.6980     6.8120    25.0660 ca         1 QGC      -0.091000
     21 N5         -16.6280     4.4060    24.9890 nb         1 QGC      -0.651000
     22 C12        -17.8850     4.3870    25.4990 ca         1 QGC       0.308900
     23 C9         -21.8170     5.5500    27.8000 c6         1 QGC      -0.080400
     24 C3         -22.4750     6.2680    30.1410 ca         1 QGC       0.382000
     25 C2         -22.7680     5.9080    31.4710 ca         1 QGC      -0.181000
     26 C1         -22.6710     4.5940    31.9040 ca         1 QGC      -0.047000
     27 C          -22.2930     3.6050    31.0100 ca         1 QGC       0.073000
     28 CL         -22.1720     1.9350    31.5460 cl         1 QGC      -0.220000
     29 N          -22.5530     7.5750    29.7190 nh         1 QGC      -0.820400
     30 N2         -26.4880     8.6760    30.8770 nc         1 QGC      -0.358000
     31 H1         -24.2680    10.0370    32.6630 hn         1 QGC       0.359000
     32 H2         -22.3050     8.5090    31.5830 h1         1 QGC       0.062200
     33 H3         -22.4840     9.5750    30.2130 h1         1 QGC       0.062200
     34 H4         -26.8290     9.9120    32.5790 h5         1 QGC       0.066100
     35 H5         -21.2880     8.3130    28.2090 h1         1 QGC       0.048700
     36 H6         -22.9810     8.7910    28.0910 h1         1 QGC       0.048700
     37 H7         -22.3320     7.1060    26.3640 hc         1 QGC       0.065200
     38 H8         -23.6590     6.5690    27.3940 hc         1 QGC       0.065200
     39 H10        -15.0480     8.0490    24.4290 ha         1 QGC       0.118000
     40 H11        -18.5550    10.1430    25.7390 ha         1 QGC       0.114000
     41 H12        -21.7390     3.1490    28.9890 ha         1 QGC       0.121000
     42 H13        -20.5840     4.8750    25.7210 hn         1 QGC       0.156000
     43 H14        -19.6980     8.0220    26.1890 ha         1 QGC       0.119000
     44 H15        -16.2340    10.1750    24.8740 ha         1 QGC       0.117000
     45 H16        -18.3280     3.4110    25.6610 h4         1 QGC       0.022100
     46 H17        -22.1570     4.7140    27.1860 hc         1 QGC       0.063700
     47 H18        -23.0850     6.6530    32.1850 ha         1 QGC       0.112000
     48 H19        -22.8990     4.3480    32.9320 ha         1 QGC       0.126000
     49 H9         -15.0540     5.5830    24.3960 h4         1 QGC       0.022100
@<TRIPOS>BOND
     1     1     4 1   
     2     1     5 1   
     3     1    31 1   
     4     2     4 2   
     5     2    30 1   
     6     3     4 1   
     7     3    29 1   
     8     3    32 1   
     9     3    33 1   
    10     5    30 2   
    11     5    34 1   
    12     6     7 1   
    13     6    29 1   
    14     6    35 1   
    15     6    36 1   
    16     7    23 1   
    17     7    37 1   
    18     7    38 1   
    19     8    14 2   
    20     8    15 1   
    21     8    23 1   
    22     9    20 ar  
    23     9    21 ar  
    24     9    49 1   
    25    10    19 ar  
    26    10    20 ar  
    27    10    39 1   
    28    11    18 ar  
    29    11    19 ar  
    30    11    40 1   
    31    12    13 ar  
    32    12    23 1   
    33    12    24 ar  
    34    13    27 ar  
    35    13    41 1   
    36    15    16 1   
    37    15    42 1   
    38    16    17 ar  
    39    16    22 ar  
    40    17    18 ar  
    41    17    20 ar  
    42    18    43 1   
    43    19    44 1   
    44    21    22 ar  
    45    22    45 1   
    46    23    46 1   
    47    24    25 ar  
    48    24    29 1   
    49    25    26 ar  
    50    25    47 1   
    51    26    27 ar  
    52    26    48 1   
    53    27    28 1   
@<TRIPOS>SUBSTRUCTURE
     1 QGC         1 TEMP              0 ****  ****    0 ROOT
