@<TRIPOS>MOLECULE
QGF
   65    67     1     0     0
SMALL
No Charge or Current Charge


@<TRIPOS>ATOM
      1 C1          -3.2980    -2.6380     3.1260 c3         1 QGF      -0.087100
      2 Cl1          5.9700    -5.2410    -0.6940 cl         1 QGF      -0.189000
      3 C2          -3.7970    -1.5430     2.1500 c3         1 QGF      -0.092000
      4 Cl2          5.8570     0.0280    -2.1110 cl         1 QGF      -0.199000
      5 C3          -2.6480    -0.5430     1.7970 c3         1 QGF      -0.070400
      6 C4          -2.9930     0.7360     0.9510 c3         1 QGF       0.183400
      7 C5          -4.0980     1.5410     1.7060 c3         1 QGF      -0.105100
      8 C6          -1.6910     1.5850     0.8640 c3         1 QGF      -0.375400
      9 S7          -1.8020     3.2140     0.0940 s6         1 QGF       1.210100
     10 O8          -2.4670     3.0770    -1.2060 o          1 QGF      -0.532000
     11 O9          -2.3190     4.1940     1.0540 o          1 QGF      -0.532000
     12 N10         -0.1760     3.6930    -0.2400 n3         1 QGF      -0.760500
     13 C11          0.4080     3.4000    -1.5720 c6         1 QGF       0.208800
     14 C12          1.1180     2.0310    -1.5860 c6         1 QGF      -0.122400
     15 C13          2.2080     1.9660    -0.4930 c6         1 QGF       0.177300
     16 C14          1.6210     2.3260     0.8980 c6         1 QGF      -0.122400
     17 C15          0.8210     3.6550     0.8600 c6         1 QGF       0.208800
     18 O16          2.7900     0.6470    -0.4980 os         1 QGF      -0.458000
     19 C17          3.9410     0.4220     0.3370 c3         1 QGF       0.208900
     20 C18          4.4620    -0.9840     0.0660 ca         1 QGF      -0.077300
     21 C19          4.0620    -2.0440     0.9060 ca         1 QGF      -0.072000
     22 C20          4.5260    -3.3500     0.6730 ca         1 QGF      -0.104000
     23 C21          5.3910    -3.6060    -0.4020 ca         1 QGF       0.127000
     24 C23          5.7910    -2.5600    -1.2470 ca         1 QGF      -0.096000
     25 C24          5.3300    -1.2520    -1.0180 ca         1 QGF       0.124000
     26 N26         -3.4140     0.3670    -0.4690 n          1 QGF      -0.298300
     27 O27         -4.5250     1.1140    -1.0230 oh         1 QGF      -0.424100
     28 C28         -2.6870    -0.5140    -1.3540 c          1 QGF       0.599900
     29 O29         -3.0250    -0.7230    -2.5150 o          1 QGF      -0.562100
     30 C30         -4.4710    -2.1640     0.9230 ca         1 QGF       0.129300
     31 N31         -5.7360    -1.7610     0.6540 nb         1 QGF      -0.163500
     32 C32         -6.3290    -2.2960    -0.4340 ca         1 QGF       0.089900
     33 C33         -5.6620    -3.2330    -1.2410 ca         1 QGF       0.069000
     34 F34         -6.2600    -3.7690    -2.3290 f          1 QGF      -0.157000
     35 C35         -4.3550    -3.5990    -0.8780 ca         1 QGF       0.089900
     36 N36         -3.7540    -3.0650     0.2060 nb         1 QGF      -0.163500
     37 H1          -2.9300    -2.1890     4.0570 hc         1 QGF       0.043033
     38 H1A         -4.1130    -3.3250     3.3830 hc         1 QGF       0.043033
     39 H1B         -2.4810    -3.2220     2.6850 hc         1 QGF       0.043033
     40 H2          -4.5530    -0.9850     2.7160 hc         1 QGF       0.074700
     41 H3          -2.2170    -0.2020     2.7470 hc         1 QGF       0.052200
     42 H3A         -1.8400    -1.0980     1.3070 hc         1 QGF       0.052200
     43 H5          -3.7850     1.7670     2.7320 hc         1 QGF       0.062033
     44 H5A         -4.3420     2.4880     1.2150 hc         1 QGF       0.062033
     45 H5B         -5.0350     0.9750     1.7540 hc         1 QGF       0.062033
     46 H6          -1.2920     1.7720     1.8660 h1         1 QGF       0.095700
     47 H6A         -0.9470     1.0340     0.2860 h1         1 QGF       0.095700
     48 H11         -0.3430     3.4410    -2.3740 h1         1 QGF       0.076200
     49 H11A         1.1530     4.1720    -1.8200 h1         1 QGF       0.076200
     50 H12          0.3900     1.2220    -1.4520 hc         1 QGF       0.060450
     51 H12A         1.5780     1.8710    -2.5700 hc         1 QGF       0.060450
     52 H13          2.9940     2.6940    -0.7460 h1         1 QGF       0.042700
     53 H14          0.9960     1.5050     1.2650 hc         1 QGF       0.060450
     54 H14A         2.4320     2.4370     1.6290 hc         1 QGF       0.060450
     55 H15          1.5410     4.4750     0.7160 h1         1 QGF       0.076200
     56 H15A         0.3480     3.8340     1.8370 h1         1 QGF       0.076200
     57 H17          4.7260     1.1620     0.1320 h1         1 QGF       0.043200
     58 H17A         3.6760     0.5090     1.3990 h1         1 QGF       0.043200
     59 H19          3.3880    -1.8550     1.7400 ha         1 QGF       0.138000
     60 H20          4.2150    -4.1630     1.3240 ha         1 QGF       0.135000
     61 H23          6.4580    -2.7620    -2.0800 ha         1 QGF       0.146000
     62 HO27        -4.0990     1.9060    -1.4300 ho         1 QGF       0.460000
     63 H28         -1.7970    -0.9700    -0.8850 h5         1 QGF       0.011200
     64 H32         -7.3440    -1.9710    -0.6560 h4         1 QGF       0.041600
     65 H35         -3.7820    -4.3210    -1.4580 h4         1 QGF       0.041600
@<TRIPOS>BOND
     1     1     3 1   
     2     1    37 1   
     3     1    38 1   
     4     1    39 1   
     5     2    23 1   
     6     3     5 1   
     7     3    30 1   
     8     3    40 1   
     9     4    25 1   
    10     5     6 1   
    11     5    41 1   
    12     5    42 1   
    13     6     7 1   
    14     6     8 1   
    15     6    26 1   
    16     7    43 1   
    17     7    44 1   
    18     7    45 1   
    19     8     9 1   
    20     8    46 1   
    21     8    47 1   
    22     9    10 2   
    23     9    11 2   
    24     9    12 1   
    25    12    13 1   
    26    12    17 1   
    27    13    14 1   
    28    13    48 1   
    29    13    49 1   
    30    14    15 1   
    31    14    50 1   
    32    14    51 1   
    33    15    16 1   
    34    15    18 1   
    35    15    52 1   
    36    16    17 1   
    37    16    53 1   
    38    16    54 1   
    39    17    55 1   
    40    17    56 1   
    41    18    19 1   
    42    19    20 1   
    43    19    57 1   
    44    19    58 1   
    45    20    21 ar  
    46    20    25 ar  
    47    21    22 ar  
    48    21    59 1   
    49    22    23 ar  
    50    22    60 1   
    51    23    24 ar  
    52    24    25 ar  
    53    24    61 1   
    54    26    27 1   
    55    26    28 1   
    56    27    62 1   
    57    28    29 2   
    58    28    63 1   
    59    30    31 ar  
    60    30    36 ar  
    61    31    32 ar  
    62    32    33 ar  
    63    32    64 1   
    64    33    34 1   
    65    33    35 ar  
    66    35    36 ar  
    67    35    65 1   
@<TRIPOS>SUBSTRUCTURE
     1 QGF         1 TEMP              0 ****  ****    0 ROOT
