@<TRIPOS>MOLECULE
QGF
   65    67     1     0     0
SMALL
bcc


@<TRIPOS>ATOM
      1 C1          -3.6150    -3.1670     2.4750 c3         1 QGF      -0.087100
      2 CL1          7.6570    -4.3150     0.4570 cl         1 QGF      -0.097400
      3 C2          -4.0700    -1.7900     1.9910 c3         1 QGF      -0.092000
      4 CL2          7.3940     1.0360     0.6220 cl         1 QGF      -0.107400
      5 C3          -2.8570    -1.0110     1.4680 c3         1 QGF      -0.070400
      6 C4          -3.1120     0.4290     0.9700 c3         1 QGF       0.183400
      7 C5          -3.8550     1.2130     2.0480 c3         1 QGF      -0.105100
      8 C6          -1.7130     1.0330     0.7030 c3         1 QGF      -0.264600
      9 S7          -1.6740     2.7410     0.1300 s6         1 QGF       1.240900
     10 O8          -2.5860     2.8500    -1.0070 o          1 QGF      -0.602800
     11 O9          -1.8770     3.6150     1.2740 o          1 QGF      -0.602800
     12 N10         -0.1690     3.0240    -0.4410 n3         1 QGF      -0.760500
     13 C11          0.2530     2.4860    -1.7340 c6         1 QGF       0.208800
     14 C12          1.1920     1.2940    -1.5890 c6         1 QGF      -0.122400
     15 C13          2.3660     1.6420    -0.6900 c6         1 QGF       0.154100
     16 C14          1.8600     2.1380     0.6610 c6         1 QGF      -0.122400
     17 C15          0.9310     3.3290     0.4730 c6         1 QGF       0.208800
     18 O16          3.1820     0.4960    -0.5650 os         1 QGF      -0.411600
     19 C17          4.4880     0.7740    -0.1450 c3         1 QGF       0.185700
     20 C18          5.2600    -0.5070    -0.0030 ca         1 QGF      -0.077300
     21 C19          4.6760    -1.7520    -0.2070 ca         1 QGF      -0.090000
     22 C20          5.4000    -2.9270    -0.0690 ca         1 QGF      -0.122000
     23 C21          6.7380    -2.8590     0.2800 ca         1 QGF       0.035400
     24 C23          7.3580    -1.6400     0.4920 ca         1 QGF      -0.114000
     25 C24          6.6080    -0.4850     0.3480 ca         1 QGF       0.032400
     26 N26         -3.9040     0.4050    -0.2740 n          1 QGF      -0.365300
     27 O27         -4.9070     1.3160    -0.4180 oh         1 QGF      -0.385100
     28 C28         -3.5170    -0.2430    -1.3910 c          1 QGF       0.666900
     29 O29         -4.0320    -0.1290    -2.4840 o          1 QGF      -0.562100
     30 C30         -5.1630    -1.9200     0.9650 ca         1 QGF       0.655300
     31 N31         -6.3080    -1.2900     1.1950 nb         1 QGF      -0.689500
     32 C32         -7.2640    -1.3900     0.2820 ca         1 QGF       0.418200
     33 C33         -7.0670    -2.1350    -0.8590 ca         1 QGF      -0.096700
     34 F34         -8.0230    -2.2350    -1.7850 f          1 QGF      -0.121900
     35 C35         -5.8570    -2.7790    -1.0220 ca         1 QGF       0.418200
     36 N36         -4.9110    -2.6690    -0.1050 nb         1 QGF      -0.689500
     37 H1          -2.8620    -3.0620     3.2570 hc         1 QGF       0.043033
     38 H1A         -4.4490    -3.7320     2.8900 hc         1 QGF       0.043033
     39 H1B         -3.1820    -3.7490     1.6620 hc         1 QGF       0.043033
     40 H2          -4.4910    -1.2550     2.8440 hc         1 QGF       0.074700
     41 H3          -2.1420    -0.9400     2.2920 hc         1 QGF       0.052200
     42 H3A         -2.3570    -1.6040     0.6980 hc         1 QGF       0.052200
     43 H5          -3.2690     1.1710     2.9670 hc         1 QGF       0.062033
     44 H5A         -4.0030     2.2600     1.8010 hc         1 QGF       0.062033
     45 H5B         -4.8320     0.7810     2.2510 hc         1 QGF       0.062033
     46 H6          -1.1070     1.0080     1.6090 h1         1 QGF       0.095700
     47 H6A         -1.1900     0.4380    -0.0500 h1         1 QGF       0.095700
     48 H11         -0.6160     2.2230    -2.3340 h1         1 QGF       0.076200
     49 H11A         0.7620     3.2950    -2.2640 h1         1 QGF       0.076200
     50 H12          0.6600     0.4320    -1.1760 hc         1 QGF       0.060450
     51 H12A         1.5450     1.0080    -2.5820 hc         1 QGF       0.060450
     52 H13          2.9410     2.4520    -1.1680 h1         1 QGF       0.042700
     53 H14          1.3370     1.3260     1.1760 hc         1 QGF       0.060450
     54 H14A         2.6860     2.4500     1.3050 hc         1 QGF       0.060450
     55 H15          1.4810     4.1680     0.0400 h1         1 QGF       0.076200
     56 H15A         0.5400     3.6720     1.4280 h1         1 QGF       0.076200
     57 H17          4.9950     1.4310    -0.8670 h1         1 QGF       0.043200
     58 H17A         4.5020     1.3050     0.8160 h1         1 QGF       0.043200
     59 H19          3.6320    -1.8160    -0.4770 ha         1 QGF       0.156000
     60 H20          4.9210    -3.8820    -0.2340 ha         1 QGF       0.153000
     61 H23          8.4030    -1.5850     0.7650 ha         1 QGF       0.164000
     62 HO27        -4.4810     2.1140    -0.7770 ho         1 QGF       0.421000
     63 H28         -2.6690    -0.9160    -1.2080 h5         1 QGF       0.011200
     64 H32         -8.2000    -0.8720     0.4630 h4         1 QGF       0.041600
     65 H35         -5.6550    -3.3850    -1.8990 h4         1 QGF       0.041600
@<TRIPOS>BOND
     1     1     3 1   
     2     1    37 1   
     3     1    38 1   
     4     1    39 1   
     5     2    23 1   
     6     3     5 1   
     7     3    30 1   
     8     3    40 1   
     9     4    25 1   
    10     5     6 1   
    11     5    41 1   
    12     5    42 1   
    13     6     7 1   
    14     6     8 1   
    15     6    26 1   
    16     7    43 1   
    17     7    44 1   
    18     7    45 1   
    19     8     9 1   
    20     8    46 1   
    21     8    47 1   
    22     9    10 2   
    23     9    11 2   
    24     9    12 1   
    25    12    13 1   
    26    12    17 1   
    27    13    14 1   
    28    13    48 1   
    29    13    49 1   
    30    14    15 1   
    31    14    50 1   
    32    14    51 1   
    33    15    16 1   
    34    15    18 1   
    35    15    52 1   
    36    16    17 1   
    37    16    53 1   
    38    16    54 1   
    39    17    55 1   
    40    17    56 1   
    41    18    19 1   
    42    19    20 1   
    43    19    57 1   
    44    19    58 1   
    45    20    21 ar  
    46    20    25 ar  
    47    21    22 ar  
    48    21    59 1   
    49    22    23 ar  
    50    22    60 1   
    51    23    24 ar  
    52    24    25 ar  
    53    24    61 1   
    54    26    27 1   
    55    26    28 1   
    56    27    62 1   
    57    28    29 2   
    58    28    63 1   
    59    30    31 ar  
    60    30    36 ar  
    61    31    32 ar  
    62    32    33 ar  
    63    32    64 1   
    64    33    34 1   
    65    33    35 ar  
    66    35    36 ar  
    67    35    65 1   
@<TRIPOS>SUBSTRUCTURE
     1 QGF         1 TEMP              0 ****  ****    0 ROOT
