@<TRIPOS>MOLECULE
QGH
   28    30     1     0     0
SMALL
No Charge or Current Charge


@<TRIPOS>ATOM
      1 CAA         15.7560    -0.3620    -7.7090 c3         1 QGH      -0.127100
      2 CAN         17.0510     0.0960    -8.4260 c6         1 QGH       0.233700
      3 CAK         17.6670     1.2930    -7.7270 cc         1 QGH      -0.064300
      4 NAI         18.3080     1.3490    -6.4730 na         1 QGH      -0.220700
      5 CAL         18.7080     2.6500    -6.2130 ca         1 QGH      -0.042200
      6 CAD         19.3770     3.1630    -5.0950 ca         1 QGH      -0.131000
      7 CAB         19.6720     4.5450    -5.0790 ca         1 QGH      -0.093000
      8 CAC         19.2960     5.3720    -6.1670 ca         1 QGH      -0.143000
      9 CAE         18.6230     4.8260    -7.2820 ca         1 QGH      -0.060000
     10 CAM         18.3470     3.4530    -7.2620 ca         1 QGH      -0.088800
     11 CAJ         17.6890     2.5920    -8.2150 cd         1 QGH      -0.123400
     12 CAG         17.0960     2.9160    -9.5690 c6         1 QGH       0.002800
     13 CAF         16.1540     1.7770   -10.0500 c6         1 QGH       0.160800
     14 NAH         16.7540     0.4270    -9.8480 n7         1 QGH      -0.858400
     15 H1          15.9740    -0.6830    -6.6840 hc         1 QGH       0.040367
     16 H2          15.0160     0.4440    -7.6500 hc         1 QGH       0.040367
     17 H3          15.2940    -1.2110    -8.2260 hc         1 QGH       0.040367
     18 H4          17.7560    -0.7500    -8.4030 h1         1 QGH       0.065700
     19 H5          18.4540     0.5600    -5.8520 hn         1 QGH       0.347000
     20 H6          19.6610     2.5200    -4.2650 ha         1 QGH       0.111000
     21 H7          20.1900     4.9770    -4.2260 ha         1 QGH       0.108000
     22 H8          19.5290     6.4340    -6.1440 ha         1 QGH       0.109000
     23 H9          18.3290     5.4480    -8.1240 ha         1 QGH       0.112000
     24 H10         17.9040     3.0500   -10.3010 hc         1 QGH       0.051700
     25 H11         16.5440     3.8640    -9.5380 hc         1 QGH       0.051700
     26 H12         15.9260     1.9220   -11.1160 h1         1 QGH       0.032200
     27 H13         15.2020     1.8390    -9.5020 h1         1 QGH       0.032200
     28 H14         16.1220    -0.2890   -10.2240 hn         1 QGH       0.414000
@<TRIPOS>BOND
     1     1     2 1   
     2     1    15 1   
     3     1    16 1   
     4     1    17 1   
     5     2     3 1   
     6     2    14 1   
     7     2    18 1   
     8     3     4 1   
     9     3    11 2   
    10     4     5 1   
    11     4    19 1   
    12     5     6 ar  
    13     5    10 ar  
    14     6     7 ar  
    15     6    20 1   
    16     7     8 ar  
    17     7    21 1   
    18     8     9 ar  
    19     8    22 1   
    20     9    10 ar  
    21     9    23 1   
    22    10    11 1   
    23    11    12 1   
    24    12    13 1   
    25    12    24 1   
    26    12    25 1   
    27    13    14 1   
    28    13    26 1   
    29    13    27 1   
    30    14    28 1   
@<TRIPOS>SUBSTRUCTURE
     1 QGH         1 TEMP              0 ****  ****    0 ROOT
