@<TRIPOS>MOLECULE
QGH
   28    30     1     0     0
SMALL
bcc


@<TRIPOS>ATOM
      1 CAA         15.8060    -0.3460    -7.6540 c3         1 QGH      -0.127100
      2 CAN         17.0470     0.1580    -8.4000 c6         1 QGH       0.233700
      3 CAK         17.6360     1.3640    -7.7470 cc         1 QGH      -0.064300
      4 NAI         18.2250     1.3680    -6.5110 na         1 QGH      -0.170400
      5 CAL         18.6590     2.6320    -6.2260 ca         1 QGH      -0.042200
      6 CAD         19.3220     3.1280    -5.1060 ca         1 QGH      -0.149000
      7 CAB         19.6430     4.4730    -5.0960 ca         1 QGH      -0.111000
      8 CAC         19.3140     5.3090    -6.1740 ca         1 QGH      -0.161000
      9 CAE         18.6580     4.8130    -7.2850 ca         1 QGH      -0.078000
     10 CAM         18.3220     3.4560    -7.3260 ca         1 QGH      -0.088800
     11 CAJ         17.6670     2.6180    -8.2830 cd         1 QGH      -0.123400
     12 CAG         17.0730     2.9220    -9.6170 c6         1 QGH       0.002800
     13 CAF         16.1400     1.7770   -10.0010 c6         1 QGH       0.160800
     14 NAH         16.8150     0.5010    -9.7990 n7         1 QGH      -0.803200
     15 H1          16.0440    -0.6210    -6.6250 hc         1 QGH       0.040367
     16 H2          15.0210     0.4100    -7.6240 hc         1 QGH       0.040367
     17 H3          15.4110    -1.2360    -8.1460 hc         1 QGH       0.040367
     18 H4          17.7920    -0.6470    -8.3820 h1         1 QGH       0.065700
     19 H5          18.3480     0.5640    -5.9180 hn         1 QGH       0.296700
     20 H6          19.5790     2.4850    -4.2730 ha         1 QGH       0.129000
     21 H7          20.1570     4.8890    -4.2390 ha         1 QGH       0.126000
     22 H8          19.5820     6.3570    -6.1320 ha         1 QGH       0.127000
     23 H9          18.4110     5.4680    -8.1130 ha         1 QGH       0.130000
     24 H10         17.8530     3.0380   -10.3770 hc         1 QGH       0.051700
     25 H11         16.5120     3.8610    -9.5980 hc         1 QGH       0.051700
     26 H12         15.8680     1.8500   -11.0550 h1         1 QGH       0.032200
     27 H13         15.2080     1.8710    -9.4270 h1         1 QGH       0.032200
     28 H14         16.2830    -0.2410   -10.2360 hn         1 QGH       0.358800
@<TRIPOS>BOND
     1     1     2 1   
     2     1    15 1   
     3     1    16 1   
     4     1    17 1   
     5     2     3 1   
     6     2    14 1   
     7     2    18 1   
     8     3     4 1   
     9     3    11 2   
    10     4     5 1   
    11     4    19 1   
    12     5     6 ar  
    13     5    10 ar  
    14     6     7 ar  
    15     6    20 1   
    16     7     8 ar  
    17     7    21 1   
    18     8     9 ar  
    19     8    22 1   
    20     9    10 ar  
    21     9    23 1   
    22    10    11 1   
    23    11    12 1   
    24    12    13 1   
    25    12    24 1   
    26    12    25 1   
    27    13    14 1   
    28    13    26 1   
    29    13    27 1   
    30    14    28 1   
@<TRIPOS>SUBSTRUCTURE
     1 QGH         1 TEMP              0 ****  ****    0 ROOT
