@<TRIPOS>MOLECULE
QGI
   44    46     1     0     0
SMALL
abcg2


@<TRIPOS>ATOM
      1 C10         21.2530     9.3620     8.6410 cc         1 QGI       0.309900
      2 C12         20.4230     8.2300     8.7100 cd         1 QGI      -0.341400
      3 C13         20.7820     7.0660     9.4870 c          1 QGI       0.649300
      4 C01         15.9280     7.8930     6.2090 c3         1 QGI      -0.038800
      5 C02         17.2190     8.5480     6.6200 ca         1 QGI      -0.131300
      6 C03         18.0930     7.8950     7.4930 ca         1 QGI      -0.072000
      7 C04         19.2830     8.5140     7.8650 ca         1 QGI      -0.051800
      8 C05         19.4900     9.7990     7.3140 ca         1 QGI       0.379500
      9 C07         17.5550     9.8250     6.1350 ca         1 QGI       0.344300
     10 C08         16.6480    10.5620     5.1920 c3         1 QGI      -0.138400
     11 C16         21.2730    11.5600     7.4670 ca         1 QGI       0.027800
     12 C17         20.9890    12.6630     8.2770 ca         1 QGI      -0.134300
     13 C18         20.0990    12.5750     9.4840 c3         1 QGI      -0.054800
     14 C19         21.5670    13.8890     7.9190 ca         1 QGI       0.133100
     15 C21         22.3830    13.9910     6.8000 ca         1 QGI      -0.126000
     16 C22         22.6410    12.8720     6.0210 ca         1 QGI      -0.080000
     17 C23         22.0940    11.6310     6.3370 ca         1 QGI      -0.092300
     18 C24         22.3740    10.4100     5.5050 c3         1 QGI      -0.043800
     19 N06         18.6940    10.4480     6.4910 nb         1 QGI      -0.665000
     20 N09         20.6990    10.2960     7.8010 na         1 QGI      -0.161200
     21 N11         22.4040     9.6000     9.2900 nv         1 QGI      -0.959000
     22 N14         19.9590     5.9790     9.4300 nt         1 QGI      -0.582000
     23 O15         21.7970     7.0410    10.2140 o          1 QGI      -0.677100
     24 O20         21.3540    15.0280     8.6430 oh         1 QGI      -0.540100
     25 H1          15.8830     7.7430     5.1270 hc         1 QGI       0.041700
     26 H2          15.8180     6.9200     6.6890 hc         1 QGI       0.041700
     27 H3          15.0650     8.5070     6.4800 hc         1 QGI       0.041700
     28 H4          17.8090     6.9200     7.8680 ha         1 QGI       0.113000
     29 H5          17.0850    11.5240     4.9330 hc         1 QGI       0.049367
     30 H6          16.4840     9.9930     4.2730 hc         1 QGI       0.049367
     31 H7          15.6640    10.7320     5.6370 hc         1 QGI       0.049367
     32 H8          20.6340    12.8760    10.3910 hc         1 QGI       0.052367
     33 H9          19.2320    13.2340     9.3790 hc         1 QGI       0.052367
     34 H10         19.7300    11.5650     9.6390 hc         1 QGI       0.052367
     35 H11         22.8120    14.9530     6.5480 ha         1 QGI       0.134000
     36 H12         23.2790    12.9630     5.1510 ha         1 QGI       0.122000
     37 H13         22.8930     9.6430     6.0860 hc         1 QGI       0.048033
     38 H14         21.4500     9.9600     5.1340 hc         1 QGI       0.048033
     39 H15         22.9970    10.6670     4.6500 hc         1 QGI       0.048033
     40 H16         22.7870     8.8110     9.7920 hn         1 QGI       0.515000
     41 H17         23.0140    10.3400     8.9810 hn         1 QGI       0.515000
     42 H18         20.3080     5.1280     9.8450 hn         1 QGI       0.301000
     43 H19         19.3120     5.8680     8.6680 hn         1 QGI       0.301000
     44 H20         20.7900    14.8500     9.4070 ho         1 QGI       0.469000
@<TRIPOS>BOND
     1     1     2 2   
     2     1    20 1   
     3     1    21 1   
     4     2     3 1   
     5     2     7 1   
     6     3    22 1   
     7     3    23 2   
     8     4     5 1   
     9     4    25 1   
    10     4    26 1   
    11     4    27 1   
    12     5     6 ar  
    13     5     9 ar  
    14     6     7 ar  
    15     6    28 1   
    16     7     8 ar  
    17     8    19 ar  
    18     8    20 1   
    19     9    10 1   
    20     9    19 ar  
    21    10    29 1   
    22    10    30 1   
    23    10    31 1   
    24    11    12 ar  
    25    11    17 ar  
    26    11    20 1   
    27    12    13 1   
    28    12    14 ar  
    29    13    32 1   
    30    13    33 1   
    31    13    34 1   
    32    14    15 ar  
    33    14    24 1   
    34    15    16 ar  
    35    15    35 1   
    36    16    17 ar  
    37    16    36 1   
    38    17    18 1   
    39    18    37 1   
    40    18    38 1   
    41    18    39 1   
    42    21    40 1   
    43    21    41 1   
    44    22    42 1   
    45    22    43 1   
    46    24    44 1   
@<TRIPOS>SUBSTRUCTURE
     1 QGI         1 TEMP              0 ****  ****    0 ROOT
