@<TRIPOS>MOLECULE
QGI
   44    46     1     0     0
SMALL
No Charge or Current Charge


@<TRIPOS>ATOM
      1 C10         21.3050     9.3770     8.6340 cc         1 QGI       0.309900
      2 C12         20.4510     8.2950     8.6600 cd         1 QGI      -0.341400
      3 C13         20.7550     7.0760     9.4510 c          1 QGI       0.649300
      4 C01         15.9460     7.7320     6.1900 c3         1 QGI      -0.038800
      5 C02         17.2170     8.4740     6.5960 ca         1 QGI      -0.131300
      6 C03         18.1390     7.8580     7.4680 ca         1 QGI      -0.072000
      7 C04         19.2900     8.5910     7.8060 ca         1 QGI      -0.051800
      8 C05         19.4890     9.8610     7.2840 ca         1 QGI       0.379500
      9 C07         17.4990     9.7810     6.1130 ca         1 QGI       0.344300
     10 C08         16.5500    10.5060     5.1690 c3         1 QGI      -0.138400
     11 C16         21.2740    11.5470     7.4860 ca         1 QGI       0.027800
     12 C17         21.0240    12.6830     8.3050 ca         1 QGI      -0.134300
     13 C18         20.1130    12.6040     9.5420 c3         1 QGI      -0.054800
     14 C19         21.6340    13.9140     7.9680 ca         1 QGI       0.133100
     15 C21         22.4650    14.0140     6.8450 ca         1 QGI      -0.126000
     16 C22         22.7050    12.8940     6.0380 ca         1 QGI      -0.080000
     17 C23         22.1150    11.6570     6.3500 ca         1 QGI      -0.092300
     18 C24         22.3930    10.4540     5.4490 c3         1 QGI      -0.043800
     19 N06         18.6170    10.4660     6.4490 nb         1 QGI      -0.665000
     20 N09         20.6980    10.3090     7.7890 na         1 QGI      -0.161200
     21 N11         22.4910     9.5970     9.2540 nv         1 QGI      -0.959000
     22 N14         19.8390     6.0960     9.4330 nt         1 QGI      -0.582000
     23 O15         21.7740     6.9200    10.1030 o          1 QGI      -0.677100
     24 O20         21.4310    15.0320     8.7260 oh         1 QGI      -0.540100
     25 H1          15.9020     7.5890     5.1040 hc         1 QGI       0.041700
     26 H2          15.8880     6.7400     6.6530 hc         1 QGI       0.041700
     27 H3          15.0510     8.2880     6.4940 hc         1 QGI       0.041700
     28 H4          17.9440     6.8600     7.8440 ha         1 QGI       0.113000
     29 H5          16.9210    11.5020     4.8970 hc         1 QGI       0.049367
     30 H6          16.4160     9.9410     4.2400 hc         1 QGI       0.049367
     31 H7          15.5650    10.6380     5.6310 hc         1 QGI       0.049367
     32 H8          20.6790    12.8100    10.4580 hc         1 QGI       0.052367
     33 H9          19.2980    13.3350     9.4770 hc         1 QGI       0.052367
     34 H10         19.6390    11.6270     9.6780 hc         1 QGI       0.052367
     35 H11         22.9270    14.9670     6.5970 ha         1 QGI       0.134000
     36 H12         23.3520    12.9910     5.1680 ha         1 QGI       0.122000
     37 H13         22.8500     9.6330     6.0130 hc         1 QGI       0.048033
     38 H14         21.4680    10.0770     4.9970 hc         1 QGI       0.048033
     39 H15         23.0770    10.7060     4.6290 hc         1 QGI       0.048033
     40 H16         22.9230     8.8120     9.7400 hn         1 QGI       0.515000
     41 H17         23.0910    10.3580     8.9500 hn         1 QGI       0.515000
     42 H18         20.0130     5.2540     9.9590 hn         1 QGI       0.301000
     43 H19         18.9890     6.2120     8.9120 hn         1 QGI       0.301000
     44 H20         20.8430    14.7960     9.4730 ho         1 QGI       0.469000
@<TRIPOS>BOND
     1     1     2 2   
     2     1    20 1   
     3     1    21 1   
     4     2     3 1   
     5     2     7 1   
     6     3    22 1   
     7     3    23 2   
     8     4     5 1   
     9     4    25 1   
    10     4    26 1   
    11     4    27 1   
    12     5     6 ar  
    13     5     9 ar  
    14     6     7 ar  
    15     6    28 1   
    16     7     8 ar  
    17     8    19 ar  
    18     8    20 1   
    19     9    10 1   
    20     9    19 ar  
    21    10    29 1   
    22    10    30 1   
    23    10    31 1   
    24    11    12 ar  
    25    11    17 ar  
    26    11    20 1   
    27    12    13 1   
    28    12    14 ar  
    29    13    32 1   
    30    13    33 1   
    31    13    34 1   
    32    14    15 ar  
    33    14    24 1   
    34    15    16 ar  
    35    15    35 1   
    36    16    17 ar  
    37    16    36 1   
    38    17    18 1   
    39    18    37 1   
    40    18    38 1   
    41    18    39 1   
    42    21    40 1   
    43    21    41 1   
    44    22    42 1   
    45    22    43 1   
    46    24    44 1   
@<TRIPOS>SUBSTRUCTURE
     1 QGI         1 TEMP              0 ****  ****    0 ROOT
