@<TRIPOS>MOLECULE
QGK
   28    30     1     0     0
SMALL
abcg2


@<TRIPOS>ATOM
      1 CAN         18.2790     3.4590    -7.3230 ca         1 QGK      -0.088800
      2 CAL         17.5160     1.3810    -7.6820 cc         1 QGK      -0.065300
      3 CAB         19.6570     4.4880    -5.1340 ca         1 QGK      -0.093000
      4 CAC         19.3440     5.3070    -6.2300 ca         1 QGK      -0.143000
      5 CAM         18.6020     2.6520    -6.2070 ca         1 QGK      -0.042200
      6 CAO         16.8790     0.1820    -8.3070 c6         1 QGK       0.237700
      7 NAJ         18.1240     1.3960    -6.4550 na         1 QGK      -0.219700
      8 CAD         19.2920     3.1540    -5.1060 ca         1 QGK      -0.131000
      9 CAE         18.6590     4.8050    -7.3210 ca         1 QGK      -0.061000
     10 CAK         17.5820     2.6200    -8.2490 cd         1 QGK      -0.125400
     11 CAH         16.9770     2.9140    -9.5800 c6         1 QGK       0.002800
     12 CAF         16.0240     1.7770    -9.9370 c6         1 QGK       0.161800
     13 NAI         16.6780     0.4950    -9.7160 n7         1 QGK      -0.860400
     14 H1          20.1940     4.9080    -4.2930 ha         1 QGK       0.108000
     15 H2          19.6450     6.3470    -6.2180 ha         1 QGK       0.109000
     16 H6          15.9200    -0.0040    -7.7920 h1         1 QGK       0.025700
     17 H7          18.2070     0.6110    -5.8310 hn         1 QGK       0.348000
     18 H8          19.5370     2.5240    -4.2600 ha         1 QGK       0.111000
     19 H9          18.4220     5.4470    -8.1620 ha         1 QGK       0.112000
     20 H10         17.7490     3.0120   -10.3510 hc         1 QGK       0.051200
     21 H11         16.4300     3.8610    -9.5650 hc         1 QGK       0.051200
     22 H12         15.7370     1.8400   -10.9870 h1         1 QGK       0.031700
     23 H13         15.1020     1.8850    -9.3430 h1         1 QGK       0.031700
     24 H14         16.1230    -0.2420   -10.1310 hn         1 QGK       0.411000
     25 CAG         17.7340    -1.0710    -8.1730 c3         1 QGK      -0.090100
     26 H3          17.8580    -1.3630    -7.1290 hc         1 QGK       0.041033
     27 H4          17.2590    -1.9090    -8.6850 hc         1 QGK       0.041033
     28 H5          18.7210    -0.9180    -8.6090 hc         1 QGK       0.041033
@<TRIPOS>BOND
     1     1     5 ar  
     2     1     9 ar  
     3     1    10 1   
     4     2     6 1   
     5     2     7 1   
     6     2    10 2   
     7     3     4 ar  
     8     3     8 ar  
     9     3    14 1   
    10     4     9 ar  
    11     4    15 1   
    12     5     7 1   
    13     5     8 ar  
    14     6    13 1   
    15     6    16 1   
    16     6    25 1   
    17     7    17 1   
    18     8    18 1   
    19     9    19 1   
    20    10    11 1   
    21    11    12 1   
    22    11    20 1   
    23    11    21 1   
    24    12    13 1   
    25    12    22 1   
    26    12    23 1   
    27    13    24 1   
    28    25    26 1   
    29    25    27 1   
    30    25    28 1   
@<TRIPOS>SUBSTRUCTURE
     1 QGK         1 TEMP              0 ****  ****    0 ROOT
