@<TRIPOS>MOLECULE
QGK
   28    30     1     0     0
SMALL
No Charge or Current Charge


@<TRIPOS>ATOM
      1 CAN         18.3030     3.4660    -7.2590 ca         1 QGK      -0.088800
      2 CAL         17.5360     1.3220    -7.6630 cc         1 QGK      -0.065300
      3 CAB         19.6740     4.5670    -5.1100 ca         1 QGK      -0.093000
      4 CAC         19.3320     5.3760    -6.2230 ca         1 QGK      -0.143000
      5 CAM         18.6310     2.6810    -6.1870 ca         1 QGK      -0.042200
      6 CAO         16.8530     0.1390    -8.3260 c6         1 QGK       0.237700
      7 NAJ         18.1750     1.3910    -6.4070 na         1 QGK      -0.219700
      8 CAD         19.3220     3.1990    -5.0840 ca         1 QGK      -0.131000
      9 CAE         18.6350     4.8250    -7.3200 ca         1 QGK      -0.061000
     10 CAK         17.6080     2.6050    -8.1850 cd         1 QGK      -0.125400
     11 CAH         17.0100     2.9170    -9.5400 c6         1 QGK       0.002800
     12 CAF         16.0330     1.7920    -9.9870 c6         1 QGK       0.161800
     13 NAI         16.6080     0.4380    -9.7610 n7         1 QGK      -0.860400
     14 H1          20.2110     5.0020    -4.2700 ha         1 QGK       0.108000
     15 H2          19.6090     6.4280    -6.2310 ha         1 QGK       0.109000
     16 H6          15.8850    -0.0430    -7.8340 h1         1 QGK       0.025700
     17 H7          18.2810     0.6180    -5.7590 hn         1 QGK       0.348000
     18 H8          19.5790     2.5700    -4.2350 ha         1 QGK       0.111000
     19 H9          18.3660     5.4340    -8.1810 ha         1 QGK       0.112000
     20 H10         17.8120     3.0160   -10.2830 hc         1 QGK       0.051200
     21 H11         16.4810     3.8790    -9.5230 hc         1 QGK       0.051200
     22 H12         15.7940     1.9200   -11.0520 h1         1 QGK       0.031700
     23 H13         15.0920     1.8820    -9.4230 h1         1 QGK       0.031700
     24 H14         15.9640    -0.2690   -10.1330 hn         1 QGK       0.411000
     25 CAG         17.7020    -1.1510    -8.2210 c3         1 QGK      -0.090100
     26 H3          17.8610    -1.4340    -7.1740 hc         1 QGK       0.041033
     27 H4          17.2060    -1.9940    -8.7170 hc         1 QGK       0.041033
     28 H5          18.6870    -1.0180    -8.6860 hc         1 QGK       0.041033
@<TRIPOS>BOND
     1     1     5 ar  
     2     1     9 ar  
     3     1    10 1   
     4     2     6 1   
     5     2     7 1   
     6     2    10 2   
     7     3     4 ar  
     8     3     8 ar  
     9     3    14 1   
    10     4     9 ar  
    11     4    15 1   
    12     5     7 1   
    13     5     8 ar  
    14     6    13 1   
    15     6    16 1   
    16     6    25 1   
    17     7    17 1   
    18     8    18 1   
    19     9    19 1   
    20    10    11 1   
    21    11    12 1   
    22    11    20 1   
    23    11    21 1   
    24    12    13 1   
    25    12    22 1   
    26    12    23 1   
    27    13    24 1   
    28    25    26 1   
    29    25    27 1   
    30    25    28 1   
@<TRIPOS>SUBSTRUCTURE
     1 QGK         1 TEMP              0 ****  ****    0 ROOT
