@<TRIPOS>MOLECULE
QGL
   41    41     1     0     0
SMALL
abcg2


@<TRIPOS>ATOM
      1 C           19.0670    62.3750    19.0710 c          1 QGL       0.706600
      2 O           19.2010    62.7810    20.2500 o          1 QGL      -0.711500
      3 C1          19.7470    63.1840    17.9700 ca         1 QGL      -0.091600
      4 C10         15.1100    61.1080    15.4450 c3         1 QGL      -0.076400
      5 C11         13.7200    61.3040    14.8430 c3         1 QGL      -0.087100
      6 C12         16.4110    61.7040    13.3330 c3         1 QGL      -0.068400
      7 C13         17.4950    61.3490    12.3170 c3         1 QGL      -0.075400
      8 C14         17.5560    62.3350    11.1520 c3         1 QGL      -0.076400
      9 C15         18.6530    62.0040    10.1440 c3         1 QGL      -0.087100
     10 C2          20.3120    64.4280    18.2560 ca         1 QGL      -0.093000
     11 C3          20.9060    65.1960    17.2630 ca         1 QGL      -0.129000
     12 C4          20.9510    64.7220    15.9550 ca         1 QGL      -0.145000
     13 C5          20.4010    63.4820    15.6540 ca         1 QGL      -0.110000
     14 C6          19.8020    62.7150    16.6540 ca         1 QGL      -0.090600
     15 C7          19.2710    61.3750    16.2450 c          1 QGL       0.655700
     16 C8          17.4670    60.2750    15.1500 c3         1 QGL       0.166600
     17 C9          16.1800    60.6610    14.4380 c3         1 QGL      -0.051700
     18 O1          18.0580    61.4770    15.7030 os         1 QGL      -0.436100
     19 O2          19.9250    60.3520    16.2590 o          1 QGL      -0.513000
     20 O3          18.4190    61.3640    18.6960 o          1 QGL      -0.711500
     21 H9          15.0510    60.3560    16.2380 hc         1 QGL       0.060200
     22 H8          15.4380    62.0360    15.9240 hc         1 QGL       0.060200
     23 H12         12.9890    61.5260    15.6230 hc         1 QGL       0.022700
     24 H10         13.6980    62.1270    14.1270 hc         1 QGL       0.022700
     25 H11         13.3890    60.4000    14.3230 hc         1 QGL       0.022700
     26 H14         16.6530    62.6650    13.7970 hc         1 QGL       0.040700
     27 H13         15.4700    61.8510    12.7970 hc         1 QGL       0.040700
     28 H16         17.3160    60.3400    11.9270 hc         1 QGL       0.038700
     29 H15         18.4740    61.3220    12.8060 hc         1 QGL       0.038700
     30 H18         17.7130    63.3450    11.5470 hc         1 QGL       0.033700
     31 H17         16.5850    62.3520    10.6460 hc         1 QGL       0.033700
     32 H20         18.6720    62.7230     9.3230 hc         1 QGL       0.027367
     33 H21         19.6370    62.0140    10.6210 hc         1 QGL       0.027367
     34 H19         18.5030    61.0100     9.7150 hc         1 QGL       0.027367
     35 H1          20.2690    64.7840    19.2760 ha         1 QGL       0.132000
     36 H2          21.3310    66.1620    17.5060 ha         1 QGL       0.089000
     37 H3          21.4110    65.3130    15.1730 ha         1 QGL       0.087000
     38 H4          20.4340    63.1070    14.6380 ha         1 QGL       0.094000
     39 H5          17.2700    59.5820    15.9700 h1         1 QGL       0.047200
     40 H6          18.1860    59.8160    14.4740 h1         1 QGL       0.047200
     41 H7          15.8300    59.7360    13.9630 hc         1 QGL       0.031700
@<TRIPOS>BOND
     1     1     2 1   
     2     1     3 1   
     3     1    20 1   
     4     3    10 ar  
     5     3    14 ar  
     6     4     5 1   
     7     4    17 1   
     8     4    21 1   
     9     4    22 1   
    10     5    23 1   
    11     5    24 1   
    12     5    25 1   
    13     6     7 1   
    14     6    17 1   
    15     6    26 1   
    16     6    27 1   
    17     7     8 1   
    18     7    28 1   
    19     7    29 1   
    20     8     9 1   
    21     8    30 1   
    22     8    31 1   
    23     9    32 1   
    24     9    33 1   
    25     9    34 1   
    26    10    11 ar  
    27    10    35 1   
    28    11    12 ar  
    29    11    36 1   
    30    12    13 ar  
    31    12    37 1   
    32    13    14 ar  
    33    13    38 1   
    34    14    15 1   
    35    15    18 1   
    36    15    19 2   
    37    16    17 1   
    38    16    18 1   
    39    16    39 1   
    40    16    40 1   
    41    17    41 1   
@<TRIPOS>SUBSTRUCTURE
     1 QGL         1 TEMP              0 ****  ****    0 ROOT
