@<TRIPOS>MOLECULE
QGL
   41    41     1     0     0
SMALL
No Charge or Current Charge


@<TRIPOS>ATOM
      1 C           20.2290    61.9780    19.2090 c          1 QGL       0.706600
      2 O           21.3150    61.6970    19.6950 o          1 QGL      -0.711500
      3 C1          20.1770    63.0740    18.1690 ca         1 QGL      -0.091600
      4 C10         14.9610    61.3060    15.2180 c3         1 QGL      -0.076400
      5 C11         13.6010    61.4720    14.5050 c3         1 QGL      -0.087100
      6 C12         16.4520    61.6840    13.1310 c3         1 QGL      -0.068400
      7 C13         17.5560    61.1550    12.1830 c3         1 QGL      -0.075400
      8 C14         17.7790    62.0650    10.9550 c3         1 QGL      -0.076400
      9 C15         18.8830    61.5470    10.0140 c3         1 QGL      -0.087100
     10 C2          20.7010    64.3440    18.4960 ca         1 QGL      -0.093000
     11 C3          20.6260    65.4080    17.5840 ca         1 QGL      -0.129000
     12 C4          20.0230    65.2150    16.3340 ca         1 QGL      -0.145000
     13 C5          19.5040    63.9570    15.9910 ca         1 QGL      -0.110000
     14 C6          19.5810    62.8710    16.8940 ca         1 QGL      -0.090600
     15 C7          19.0560    61.5180    16.4680 c          1 QGL       0.655700
     16 C8          17.3480    60.3860    15.1950 c3         1 QGL       0.166600
     17 C9          16.1090    60.7440    14.3290 c3         1 QGL      -0.051700
     18 O1          17.9230    61.6040    15.6990 os         1 QGL      -0.436100
     19 O2          19.6110    60.4590    16.7390 o          1 QGL      -0.513000
     20 O3          19.1700    61.5030    19.5960 o          1 QGL      -0.711500
     21 H9          14.8130    60.6320    16.0710 hc         1 QGL       0.060200
     22 H8          15.2620    62.2740    15.6390 hc         1 QGL       0.060200
     23 H12         12.8260    61.7490    15.2290 hc         1 QGL       0.022700
     24 H10         13.6430    62.2610    13.7450 hc         1 QGL       0.022700
     25 H11         13.2980    60.5350    14.0220 hc         1 QGL       0.022700
     26 H14         16.7480    62.6690    13.5130 hc         1 QGL       0.040700
     27 H13         15.5480    61.8420    12.5320 hc         1 QGL       0.040700
     28 H16         17.2880    60.1480    11.8420 hc         1 QGL       0.038700
     29 H15         18.5030    61.0710    12.7300 hc         1 QGL       0.038700
     30 H18         18.0450    63.0740    11.2940 hc         1 QGL       0.033700
     31 H17         16.8420    62.1520    10.3910 hc         1 QGL       0.033700
     32 H20         19.0050    62.2230     9.1590 hc         1 QGL       0.027367
     33 H21         19.8430    61.4830    10.5400 hc         1 QGL       0.027367
     34 H19         18.6310    60.5510     9.6310 hc         1 QGL       0.027367
     35 H1          21.1580    64.5050    19.4710 ha         1 QGL       0.132000
     36 H2          21.0300    66.3820    17.8500 ha         1 QGL       0.089000
     37 H3          19.9620    66.0390    15.6270 ha         1 QGL       0.087000
     38 H4          19.0540    63.8210    15.0100 ha         1 QGL       0.094000
     39 H5          17.0420    59.7310    16.0210 h1         1 QGL       0.047200
     40 H6          18.0770    59.8330    14.5880 h1         1 QGL       0.047200
     41 H7          15.7480    59.7990    13.9030 hc         1 QGL       0.031700
@<TRIPOS>BOND
     1     1     2 1   
     2     1     3 1   
     3     1    20 1   
     4     3    10 ar  
     5     3    14 ar  
     6     4     5 1   
     7     4    17 1   
     8     4    21 1   
     9     4    22 1   
    10     5    23 1   
    11     5    24 1   
    12     5    25 1   
    13     6     7 1   
    14     6    17 1   
    15     6    26 1   
    16     6    27 1   
    17     7     8 1   
    18     7    28 1   
    19     7    29 1   
    20     8     9 1   
    21     8    30 1   
    22     8    31 1   
    23     9    32 1   
    24     9    33 1   
    25     9    34 1   
    26    10    11 ar  
    27    10    35 1   
    28    11    12 ar  
    29    11    36 1   
    30    12    13 ar  
    31    12    37 1   
    32    13    14 ar  
    33    13    38 1   
    34    14    15 1   
    35    15    18 1   
    36    15    19 2   
    37    16    17 1   
    38    16    18 1   
    39    16    39 1   
    40    16    40 1   
    41    17    41 1   
@<TRIPOS>SUBSTRUCTURE
     1 QGL         1 TEMP              0 ****  ****    0 ROOT
