@<TRIPOS>MOLECULE
QGM
   39    41     1     0     0
SMALL
No Charge or Current Charge


@<TRIPOS>ATOM
      1 N          -10.1410    -9.5390    39.8600 nu         1 QGM      -0.917200
      2 CA         -10.3610    -8.1910    40.4780 c6         1 QGM       0.068500
      3 C           -9.8490    -6.9550    39.6210 c          1 QGM       0.722000
      4 OXT         -9.2220    -6.0970    40.2290 o          1 QGM      -0.712000
      5 CB         -11.8670    -8.0710    40.8100 c6         1 QGM      -0.087400
      6 CG         -12.3510    -9.2520    41.6860 c6         1 QGM       0.184000
      7 CD1        -11.9250   -10.6100    41.1130 ca         1 QGM      -0.226300
      8 ND2        -11.8270    -9.1430    43.0500 ns         1 QGM      -0.510900
      9 O           -9.6630    -7.1410    38.4220 o          1 QGM      -0.712000
     10 CAF        -12.4460    -7.5380    49.3220 ca         1 QGM      -0.152000
     11 CAG        -11.2280    -8.1130    48.9300 ca         1 QGM      -0.088500
     12 CAH        -13.4610    -7.3350    48.3740 ca         1 QGM      -0.088500
     13 CAI        -11.0270    -8.4850    47.5900 ca         1 QGM      -0.151500
     14 CAJ        -13.2600    -7.7070    47.0330 ca         1 QGM      -0.151500
     15 CAK        -12.2150   -13.0240    40.9120 ca         1 QGM      -0.219000
     16 CAL        -10.4510   -11.9150    39.6720 ca         1 QGM      -0.231000
     17 CAR        -12.5000    -8.6170    44.1250 c          1 QGM       0.664100
     18 CAS        -11.1390   -13.0820    40.0200 ca         1 QGM       0.197000
     19 CAT        -12.0360    -8.2870    46.6280 ca         1 QGM       0.012000
     20 CAU        -12.6100   -11.7940    41.4570 ca         1 QGM       0.206000
     21 CAV        -10.8380   -10.6880    40.2190 ca         1 QGM       0.397000
     22 NAN        -11.7590    -8.6900    45.2930 ns         1 QGM      -0.170000
     23 OAB        -13.6220    -8.1410    44.0240 o          1 QGM      -0.632100
     24 ClD        -10.6490   -14.6250    39.3370 cl         1 QGM      -0.238000
     25 ClE        -13.9750   -11.7770    42.5720 cl         1 QGM      -0.223000
     26 H1          -9.5050    -9.6110    39.0610 hn         1 QGM       0.525000
     27 H2          -9.8110    -8.1490    41.4300 h1         1 QGM       0.037700
     28 H4         -12.0710    -7.1180    41.3170 hc         1 QGM       0.071200
     29 H5         -12.4450    -8.0540    39.8760 hc         1 QGM       0.071200
     30 H6         -13.4500    -9.2100    41.7240 h1         1 QGM       0.080700
     31 H7         -10.9030    -9.5120    43.2270 hn         1 QGM       0.310500
     32 H10        -14.4060    -6.8900    48.6780 ha         1 QGM       0.104000
     33 H11        -10.0780    -8.9310    47.2980 ha         1 QGM       0.126000
     34 H12        -14.0670    -7.5390    46.3280 ha         1 QGM       0.126000
     35 H13        -12.7460   -13.9320    41.1810 ha         1 QGM       0.130000
     36 H14         -9.6150   -11.9680    38.9820 ha         1 QGM       0.129000
     37 H15        -10.8470    -9.1110    45.1800 hn         1 QGM       0.142000
     38 H8         -12.6040    -7.2490    50.3590 ha         1 QGM       0.104000
     39 H9         -10.4400    -8.2710    49.6630 ha         1 QGM       0.104000
@<TRIPOS>BOND
     1     1     2 1   
     2     1    21 1   
     3     1    26 1   
     4     2     3 1   
     5     2     5 1   
     6     2    27 1   
     7     3     4 1   
     8     3     9 1   
     9     5     6 1   
    10     5    28 1   
    11     5    29 1   
    12     6     7 1   
    13     6     8 1   
    14     6    30 1   
    15     7    20 ar  
    16     7    21 ar  
    17     8    17 1   
    18     8    31 1   
    19    10    11 ar  
    20    10    12 ar  
    21    10    38 1   
    22    11    13 ar  
    23    11    39 1   
    24    12    14 ar  
    25    12    32 1   
    26    13    19 ar  
    27    13    33 1   
    28    14    19 ar  
    29    14    34 1   
    30    15    18 ar  
    31    15    20 ar  
    32    15    35 1   
    33    16    18 ar  
    34    16    21 ar  
    35    16    36 1   
    36    17    22 1   
    37    17    23 2   
    38    18    24 1   
    39    19    22 1   
    40    20    25 1   
    41    22    37 1   
@<TRIPOS>SUBSTRUCTURE
     1 QGM         1 TEMP              0 ****  ****    0 ROOT
