@<TRIPOS>MOLECULE
QGM
   39    41     1     0     0
SMALL
abcg2


@<TRIPOS>ATOM
      1 N          -10.2410    -9.4510    39.8310 nu         1 QGM      -0.917200
      2 CA         -10.4920    -8.1940    40.4880 c6         1 QGM       0.068500
      3 C          -10.1050    -7.0170    39.5580 c          1 QGM       0.722000
      4 OXT        -10.4620    -5.8910    39.9440 o          1 QGM      -0.712000
      5 CB         -11.9400    -8.1540    40.9430 c6         1 QGM      -0.087400
      6 CG         -12.2610    -9.3500    41.8380 c6         1 QGM       0.184000
      7 CD1        -11.8290   -10.6360    41.1830 ca         1 QGM      -0.226300
      8 ND2        -11.6470    -9.2490    43.1490 ns         1 QGM      -0.510900
      9 O           -9.4540    -7.3030    38.5350 o          1 QGM      -0.712000
     10 CAF        -12.5860    -7.4540    49.2300 ca         1 QGM      -0.152000
     11 CAG        -11.7050    -8.5080    49.0290 ca         1 QGM      -0.088500
     12 CAH        -13.1330    -6.8170    48.1250 ca         1 QGM      -0.088500
     13 CAI        -11.3910    -8.9250    47.7460 ca         1 QGM      -0.151500
     14 CAJ        -12.8180    -7.2180    46.8340 ca         1 QGM      -0.151500
     15 CAK        -12.0370   -13.0570    40.9020 ca         1 QGM      -0.219000
     16 CAL        -10.4990   -11.8020    39.5090 ca         1 QGM      -0.231000
     17 CAR        -12.2790    -8.6860    44.2060 c          1 QGM       0.664100
     18 CAS        -11.0970   -12.9820    39.8830 ca         1 QGM       0.197000
     19 CAT        -11.9460    -8.2900    46.6320 ca         1 QGM       0.012000
     20 CAU        -12.3750   -11.8660    41.5240 ca         1 QGM       0.206000
     21 CAV        -10.8450   -10.6070    40.1690 ca         1 QGM       0.397000
     22 NAN        -11.5500    -8.7390    45.3720 ns         1 QGM      -0.170000
     23 OAB        -13.3900    -8.1840    44.1290 o          1 QGM      -0.632100
     24 CLD        -10.6570   -14.4430    39.0570 cl         1 QGM      -0.238000
     25 CLE        -13.5560   -11.9390    42.7940 cl         1 QGM      -0.223000
     26 H1          -9.6260    -9.4140    39.0330 hn         1 QGM       0.525000
     27 H2          -9.8540    -8.1070    41.3830 h1         1 QGM       0.037700
     28 H4         -12.1420    -7.2320    41.4840 hc         1 QGM       0.071200
     29 H5         -12.6010    -8.1780    40.0720 hc         1 QGM       0.071200
     30 H6         -13.3420    -9.3760    41.9880 h1         1 QGM       0.080700
     31 H7         -10.7140    -9.6140    43.2560 hn         1 QGM       0.310500
     32 H10        -13.8120    -5.9850    48.2620 ha         1 QGM       0.104000
     33 H11        -10.7090    -9.7550    47.6030 ha         1 QGM       0.126000
     34 H12        -13.2450    -6.6900    45.9960 ha         1 QGM       0.126000
     35 H13        -12.4870   -13.9940    41.1940 ha         1 QGM       0.130000
     36 H14         -9.7590   -11.7820    38.7200 ha         1 QGM       0.129000
     37 H15        -10.7280    -9.3250    45.3720 hn         1 QGM       0.142000
     38 H8         -12.8370    -7.1300    50.2310 ha         1 QGM       0.104000
     39 H9         -11.2610    -9.0170    49.8750 ha         1 QGM       0.104000
@<TRIPOS>BOND
     1     1     2 1   
     2     1    21 1   
     3     1    26 1   
     4     2     3 1   
     5     2     5 1   
     6     2    27 1   
     7     3     4 1   
     8     3     9 1   
     9     5     6 1   
    10     5    28 1   
    11     5    29 1   
    12     6     7 1   
    13     6     8 1   
    14     6    30 1   
    15     7    20 ar  
    16     7    21 ar  
    17     8    17 1   
    18     8    31 1   
    19    10    11 ar  
    20    10    12 ar  
    21    10    38 1   
    22    11    13 ar  
    23    11    39 1   
    24    12    14 ar  
    25    12    32 1   
    26    13    19 ar  
    27    13    33 1   
    28    14    19 ar  
    29    14    34 1   
    30    15    18 ar  
    31    15    20 ar  
    32    15    35 1   
    33    16    18 ar  
    34    16    21 ar  
    35    16    36 1   
    36    17    22 1   
    37    17    23 2   
    38    18    24 1   
    39    19    22 1   
    40    20    25 1   
    41    22    37 1   
@<TRIPOS>SUBSTRUCTURE
     1 QGM         1 TEMP              0 ****  ****    0 ROOT
