@<TRIPOS>MOLECULE
QGN
   21    22     1     0     0
SMALL
abcg2


@<TRIPOS>ATOM
      1 N1          33.3860    17.9250     0.3210 nb         1 QGN      -0.280000
      2 N3          33.6420    15.4200    -2.1430 na         1 QGN      -0.175100
      3 C4          31.7010    14.7080    -1.5650 cc         1 QGN       0.552800
      4 C5          31.9960    15.8380    -0.7290 ca         1 QGN      -0.253900
      5 C6          31.3930    16.5650     0.2820 ca         1 QGN       0.013700
      6 C7          30.0350    16.2470     0.8160 c3         1 QGN      -0.058800
      7 C2          32.1680    17.6220     0.7850 ca         1 QGN       0.235300
      8 N2          33.9600    17.2610    -0.6440 nb         1 QGN      -0.335000
      9 C3          33.2760    16.2460    -1.1480 ca         1 QGN       0.341500
     10 N4          32.6960    14.4830    -2.3810 nd         1 QGN      -0.559100
     11 N5          30.5350    13.9810    -1.5950 nv         1 QGN      -0.962200
     12 H1          34.5050    15.4100    -2.6600 hn         1 QGN       0.394000
     13 H2          30.1080    15.5280     1.6360 hc         1 QGN       0.056033
     14 H3          29.5340    17.1310     1.2040 hc         1 QGN       0.056033
     15 H4          29.3980    15.8110     0.0490 hc         1 QGN       0.056033
     16 H5          32.4190    19.2410     2.1520 hc         1 QGN       0.050700
     17 H6          30.7520    19.0170     1.6230 hc         1 QGN       0.050700
     18 H7          31.4500    17.9150     2.7960 hc         1 QGN       0.050700
     19 H8          30.6050    13.1330    -2.1390 hn         1 QGN       0.451500
     20 H9          30.1410    13.7840    -0.6880 hn         1 QGN       0.451500
     21 C1          31.6700    18.4940     1.8980 c3         1 QGN      -0.135400
@<TRIPOS>BOND
     1     1     7 ar  
     2     1     8 ar  
     3     2     9 1   
     4     2    10 1   
     5     2    12 1   
     6     3     4 1   
     7     3    10 2   
     8     3    11 1   
     9     4     5 ar  
    10     4     9 ar  
    11     5     6 1   
    12     5     7 ar  
    13     6    13 1   
    14     6    14 1   
    15     6    15 1   
    16     7    21 1   
    17     8     9 ar  
    18    11    19 1   
    19    11    20 1   
    20    16    21 1   
    21    17    21 1   
    22    18    21 1   
@<TRIPOS>SUBSTRUCTURE
     1 QGN         1 TEMP              0 ****  ****    0 ROOT
