@<TRIPOS>MOLECULE
QGN
   21    22     1     0     0
SMALL
No Charge or Current Charge


@<TRIPOS>ATOM
      1 N1          33.4000    17.9860     0.3310 nb         1 QGN      -0.280000
      2 N3          33.6480    15.3400    -2.2060 na         1 QGN      -0.175100
      3 C4          31.7320    14.7150    -1.5650 cc         1 QGN       0.552800
      4 C5          32.0750    15.8530    -0.7600 ca         1 QGN      -0.253900
      5 C6          31.4240    16.5650     0.2720 ca         1 QGN       0.013700
      6 C7          30.0310    16.1780     0.7680 c3         1 QGN      -0.058800
      7 C2          32.1630    17.6620     0.8050 ca         1 QGN       0.235300
      8 N2          33.9760    17.2760    -0.6660 nb         1 QGN      -0.335000
      9 C3          33.3160    16.2270    -1.1980 ca         1 QGN       0.341500
     10 N4          32.6560    14.3760    -2.4490 nd         1 QGN      -0.559100
     11 N5          30.6110    13.9880    -1.4660 nv         1 QGN      -0.962200
     12 H1          34.5190    15.3630    -2.7310 hn         1 QGN       0.394000
     13 H2          30.0560    15.2140     1.2890 hc         1 QGN       0.056033
     14 H3          29.6060    16.9100     1.4630 hc         1 QGN       0.056033
     15 H4          29.3260    16.0970    -0.0680 hc         1 QGN       0.056033
     16 H5          32.3760    19.2950     2.2400 hc         1 QGN       0.050700
     17 H6          30.7350    19.0820     1.6170 hc         1 QGN       0.050700
     18 H7          31.3890    17.9470     2.8150 hc         1 QGN       0.050700
     19 H8          30.6120    13.0930    -1.9420 hn         1 QGN       0.451500
     20 H9          30.0790    14.0490    -0.6080 hn         1 QGN       0.451500
     21 C1          31.6380    18.5450     1.9300 c3         1 QGN      -0.135400
@<TRIPOS>BOND
     1     1     7 ar  
     2     1     8 ar  
     3     2     9 1   
     4     2    10 1   
     5     2    12 1   
     6     3     4 1   
     7     3    10 2   
     8     3    11 1   
     9     4     5 ar  
    10     4     9 ar  
    11     5     6 1   
    12     5     7 ar  
    13     6    13 1   
    14     6    14 1   
    15     6    15 1   
    16     7    21 1   
    17     8     9 ar  
    18    11    19 1   
    19    11    20 1   
    20    16    21 1   
    21    17    21 1   
    22    18    21 1   
@<TRIPOS>SUBSTRUCTURE
     1 QGN         1 TEMP              0 ****  ****    0 ROOT
