@<TRIPOS>MOLECULE
QGO
   52    55     1     0     0
SMALL
abcg2


@<TRIPOS>ATOM
      1 N1         -20.1890     5.5090    26.7510 ns         1 QGO      -0.170000
      2 C4         -22.1530     5.8600    28.2450 c6         1 QGO      -0.047700
      3 C5         -22.7950     7.2560    28.4180 c6         1 QGO      -0.110400
      4 C6         -23.9420     7.2460    29.4060 c6         1 QGO       0.161600
      5 C7         -22.7630     5.6570    30.7170 ca         1 QGO       0.166100
      6 C8         -22.6590     5.0110    31.9510 ca         1 QGO      -0.129000
      7 C10        -21.2930     3.3260    30.9530 ca         1 QGO       0.096000
      8 C13        -20.6660     6.1130    27.8660 c          1 QGO       0.597100
      9 C15        -18.0290     4.5110    26.3700 ca         1 QGO       0.313900
     10 C17        -16.9540     6.8520    25.4480 ca         1 QGO      -0.091000
     11 C20        -18.4830     9.1770    25.2350 ca         1 QGO      -0.092000
     12 C21        -19.0750     8.0370    25.7170 ca         1 QGO      -0.088000
     13 C22        -18.3210     6.8480    25.8450 ca         1 QGO       0.000000
     14 O2         -19.9660     6.8340    28.5640 o          1 QGO      -0.561100
     15 C12        -22.1160     5.1410    29.5910 ca         1 QGO      -0.132300
     16 C11        -21.3830     3.9620    29.7290 ca         1 QGO      -0.055000
     17 CL         -20.3630     1.8450    31.0900 cl         1 QGO      -0.214000
     18 C9         -21.9250     3.8450    32.0780 ca         1 QGO      -0.060000
     19 O1         -23.5020     6.8010    30.6990 os         1 QGO      -0.342100
     20 C3         -22.8870     5.0210    27.1630 c3         1 QGO      -0.154400
     21 C2         -24.3570     4.7660    27.4580 c          1 QGO       0.598100
     22 O          -24.6720     3.9970    28.3720 o          1 QGO      -0.591100
     23 N          -25.2790     5.4060    26.7060 n          1 QGO      -0.420800
     24 C1         -24.9670     6.1970    25.5130 c3         1 QGO       0.087800
     25 C          -26.6950     5.2280    27.0060 c3         1 QGO       0.087800
     26 C14        -18.8370     5.6190    26.3320 ca         1 QGO      -0.081000
     27 C19        -17.1200     9.1880    24.8610 ca         1 QGO      -0.107000
     28 C18        -16.3700     8.0450    24.9620 ca         1 QGO      -0.083000
     29 C16        -16.2250     5.6430    25.5390 ca         1 QGO       0.360900
     30 N2         -16.7330     4.5110    25.9700 nb         1 QGO      -0.651000
     31 H1         -20.7610     4.8340    26.2690 hn         1 QGO       0.157000
     32 H2         -22.0360     7.9430    28.7900 hc         1 QGO       0.070200
     33 H3         -23.1380     7.6350    27.4550 hc         1 QGO       0.070200
     34 H4         -24.3230     8.2530    29.5600 h1         1 QGO       0.061700
     35 H5         -24.7670     6.6090    29.0840 h1         1 QGO       0.061700
     36 H6         -23.1690     5.4350    32.8060 ha         1 QGO       0.133000
     37 H7         -18.4260     3.5720    26.7370 h4         1 QGO       0.023100
     38 H8         -19.0660    10.0840    25.1380 ha         1 QGO       0.115000
     39 H9         -20.1180     8.0420    25.9980 ha         1 QGO       0.118000
     40 H10        -20.8710     3.5430    28.8730 ha         1 QGO       0.118000
     41 H11        -21.8480     3.3440    33.0330 ha         1 QGO       0.132000
     42 H12        -22.4340     4.0300    27.1040 hc         1 QGO       0.064200
     43 H13        -22.7560     5.5150    26.2040 hc         1 QGO       0.064200
     44 H14        -24.3530     5.6340    24.8100 h1         1 QGO       0.044200
     45 H15        -25.9040     6.4400    25.0190 h1         1 QGO       0.044200
     46 H16        -24.4620     7.1310    25.7610 h1         1 QGO       0.044200
     47 H17        -26.8030     4.8290    28.0090 h1         1 QGO       0.044200
     48 H18        -27.1980     6.1930    26.9400 h1         1 QGO       0.044200
     49 H19        -27.1610     4.5400    26.2950 h1         1 QGO       0.044200
     50 H20        -16.6760    10.1020    24.4880 ha         1 QGO       0.118000
     51 H21        -15.3270     8.0360    24.6700 ha         1 QGO       0.119000
     52 H22        -15.1820     5.6370    25.2330 h4         1 QGO       0.022100
@<TRIPOS>BOND
     1     1     8 1   
     2     1    26 1   
     3     1    31 1   
     4     2     3 1   
     5     2     8 1   
     6     2    15 1   
     7     2    20 1   
     8     3     4 1   
     9     3    32 1   
    10     3    33 1   
    11     4    19 1   
    12     4    34 1   
    13     4    35 1   
    14     5     6 ar  
    15     5    15 ar  
    16     5    19 1   
    17     6    18 ar  
    18     6    36 1   
    19     7    16 ar  
    20     7    17 1   
    21     7    18 ar  
    22     8    14 2   
    23     9    26 ar  
    24     9    30 ar  
    25     9    37 1   
    26    10    13 ar  
    27    10    28 ar  
    28    10    29 ar  
    29    11    12 ar  
    30    11    27 ar  
    31    11    38 1   
    32    12    13 ar  
    33    12    39 1   
    34    13    26 ar  
    35    15    16 ar  
    36    16    40 1   
    37    18    41 1   
    38    20    21 1   
    39    20    42 1   
    40    20    43 1   
    41    21    22 2   
    42    21    23 1   
    43    23    24 1   
    44    23    25 1   
    45    24    44 1   
    46    24    45 1   
    47    24    46 1   
    48    25    47 1   
    49    25    48 1   
    50    25    49 1   
    51    27    28 ar  
    52    27    50 1   
    53    28    51 1   
    54    29    30 ar  
    55    29    52 1   
@<TRIPOS>SUBSTRUCTURE
     1 QGO         1 TEMP              0 ****  ****    0 ROOT
