@<TRIPOS>MOLECULE
QGO
   52    55     1     0     0
SMALL
No Charge or Current Charge


@<TRIPOS>ATOM
      1 N1         -19.8560     6.0830    27.1310 ns         1 QGO      -0.170000
      2 C4         -22.0420     5.3060    28.1770 c6         1 QGO      -0.047700
      3 C5         -22.3880     6.8420    28.0770 c6         1 QGO      -0.110400
      4 C6         -23.5070     7.2750    29.0370 c6         1 QGO       0.161600
      5 C7         -22.6680     5.7100    30.6740 ca         1 QGO       0.166100
      6 C8         -22.7380     5.2950    32.0130 ca         1 QGO      -0.129000
      7 C10        -21.9310     3.0990    31.3840 ca         1 QGO       0.096000
      8 C13        -20.5770     5.0080    27.6430 c          1 QGO       0.597100
      9 C15        -17.5340     5.2090    26.9170 ca         1 QGO       0.313900
     10 C17        -16.8250     7.3550    25.3480 ca         1 QGO      -0.091000
     11 C20        -18.6440     9.3860    24.6690 ca         1 QGO      -0.092000
     12 C21        -19.0640     8.3110    25.4710 ca         1 QGO      -0.088000
     13 C22        -18.1540     7.2850    25.8200 ca         1 QGO       0.000000
     14 O2         -20.1120     3.8740    27.6310 o          1 QGO      -0.561100
     15 C12        -22.1740     4.8380    29.6630 ca         1 QGO      -0.132300
     16 C11        -21.8410     3.5130    30.0450 ca         1 QGO      -0.055000
     17 Cl         -21.4950     1.4520    31.8220 cl         1 QGO      -0.214000
     18 C9         -22.3640     3.9910    32.3730 ca         1 QGO      -0.060000
     19 O1         -23.1130     6.9790    30.3830 os         1 QGO      -0.342100
     20 C3         -23.0090     4.4480    27.2630 c3         1 QGO      -0.154400
     21 C2         -24.5110     4.4870    27.6300 c          1 QGO       0.598100
     22 O          -24.9180     3.8600    28.5990 o          1 QGO      -0.591100
     23 N          -25.4170     5.2560    26.8550 n          1 QGO      -0.420800
     24 C1         -25.0710     5.7860    25.5150 c3         1 QGO       0.087800
     25 C          -26.8340     5.3640    27.2720 c3         1 QGO       0.087800
     26 C14        -18.5260     6.1780    26.6220 ca         1 QGO      -0.081000
     27 C19        -17.3200     9.4480    24.2060 ca         1 QGO      -0.107000
     28 C18        -16.4100     8.4340    24.5430 ca         1 QGO      -0.083000
     29 C16        -15.9220     6.3320    25.6920 ca         1 QGO       0.360900
     30 N2         -16.2610     5.2770    26.4660 nb         1 QGO      -0.651000
     31 H1         -20.3580     6.9600    27.1300 hn         1 QGO       0.157000
     32 H2         -21.5250     7.4550    28.3700 hc         1 QGO       0.070200
     33 H3         -22.6330     7.1320    27.0470 hc         1 QGO       0.070200
     34 H4         -23.6850     8.3560    28.9500 h1         1 QGO       0.061700
     35 H5         -24.4520     6.7630    28.8180 h1         1 QGO       0.061700
     36 H6         -23.1030     5.9820    32.7710 ha         1 QGO       0.133000
     37 H7         -17.7440     4.3560    27.5570 h4         1 QGO       0.023100
     38 H8         -19.3490    10.1720    24.4040 ha         1 QGO       0.115000
     39 H9         -20.0960     8.2890    25.8100 ha         1 QGO       0.118000
     40 H10        -21.5160     2.7840    29.3100 ha         1 QGO       0.118000
     41 H11        -22.4290     3.6680    33.4090 ha         1 QGO       0.132000
     42 H12        -22.7110     3.3950    27.3220 hc         1 QGO       0.064200
     43 H13        -22.8570     4.7690    26.2290 hc         1 QGO       0.064200
     44 H14        -24.6930     4.9760    24.8790 h1         1 QGO       0.044200
     45 H15        -25.9550     6.2200    25.0300 h1         1 QGO       0.044200
     46 H16        -24.3070     6.5670    25.6050 h1         1 QGO       0.044200
     47 H17        -26.8940     5.5680    28.3490 h1         1 QGO       0.044200
     48 H18        -27.3330     6.1830    26.7380 h1         1 QGO       0.044200
     49 H19        -27.3560     4.4240    27.0540 h1         1 QGO       0.044200
     50 H20        -17.0000    10.2820    23.5840 ha         1 QGO       0.118000
     51 H21        -15.3850     8.4870    24.1800 ha         1 QGO       0.119000
     52 H22        -14.8900     6.3590    25.3430 h4         1 QGO       0.022100
@<TRIPOS>BOND
     1     1     8 1   
     2     1    26 1   
     3     1    31 1   
     4     2     3 1   
     5     2     8 1   
     6     2    15 1   
     7     2    20 1   
     8     3     4 1   
     9     3    32 1   
    10     3    33 1   
    11     4    19 1   
    12     4    34 1   
    13     4    35 1   
    14     5     6 ar  
    15     5    15 ar  
    16     5    19 1   
    17     6    18 ar  
    18     6    36 1   
    19     7    16 ar  
    20     7    17 1   
    21     7    18 ar  
    22     8    14 2   
    23     9    26 ar  
    24     9    30 ar  
    25     9    37 1   
    26    10    13 ar  
    27    10    28 ar  
    28    10    29 ar  
    29    11    12 ar  
    30    11    27 ar  
    31    11    38 1   
    32    12    13 ar  
    33    12    39 1   
    34    13    26 ar  
    35    15    16 ar  
    36    16    40 1   
    37    18    41 1   
    38    20    21 1   
    39    20    42 1   
    40    20    43 1   
    41    21    22 2   
    42    21    23 1   
    43    23    24 1   
    44    23    25 1   
    45    24    44 1   
    46    24    45 1   
    47    24    46 1   
    48    25    47 1   
    49    25    48 1   
    50    25    49 1   
    51    27    28 ar  
    52    27    50 1   
    53    28    51 1   
    54    29    30 ar  
    55    29    52 1   
@<TRIPOS>SUBSTRUCTURE
     1 QGO         1 TEMP              0 ****  ****    0 ROOT
