@<TRIPOS>MOLECULE
QGP
   39    40     1     0     0
SMALL
No Charge or Current Charge


@<TRIPOS>ATOM
      1 C4          -8.3540    18.7390   -51.7860 ca         1 QGP       0.563700
      2 C5          -7.7410    19.9640   -51.4140 ca         1 QGP      -0.173300
      3 C6          -6.3820    19.9830   -51.0520 ca         1 QGP      -0.040000
      4 C7          -5.6080    18.8030   -51.0430 cp         1 QGP      -0.263000
      5 C8          -6.2290    17.5930   -51.4220 ca         1 QGP      -0.016000
      6 C9          -7.5870    17.5490   -51.7870 ca         1 QGP      -0.214300
      7 C10         -3.5760    18.0120   -49.6870 ca         1 QGP       0.081000
      8 C11         -1.3900    19.0190   -50.0680 ca         1 QGP       0.044000
      9 C12         -4.1570    18.8540   -50.6810 cp         1 QGP       0.108000
     10 C13         -3.3130    19.7810   -51.3410 ca         1 QGP      -0.135000
     11 C14         -1.9430    19.8630   -51.0410 ca         1 QGP      -0.108000
     12 C15         -2.2030    18.0990   -49.3900 ca         1 QGP      -0.105000
     13 C16         -8.2050    16.2080   -52.2040 c3         1 QGP       0.026900
     14 CA          -9.1540    15.5780   -51.1440 c3         1 QGP       0.014500
     15 N           -8.4370    15.3140   -49.8370 n8         1 QGP      -0.968200
     16 C           -9.9130    14.3410   -51.7710 c          1 QGP       0.687000
     17 O          -11.1300    14.3980   -51.8770 o          1 QGP      -0.764000
     18 O3         -10.6060    20.9510   -53.0010 oh         1 QGP      -0.857400
     19 O4          -8.4540    21.5210   -54.1730 o          1 QGP      -0.871500
     20 O5          -9.6790    23.2830   -52.9140 o          1 QGP      -0.871500
     21 C1          -8.5330    21.2890   -51.4050 c3         1 QGP      -0.378100
     22 O6          -9.5560    18.7310   -52.1250 o          1 QGP      -0.755700
     23 H1          -5.9160    20.9230   -50.7680 ha         1 QGP       0.063000
     24 H2          -5.6400    16.6790   -51.4430 ha         1 QGP       0.068000
     25 H4          -3.7320    20.4350   -52.1020 ha         1 QGP       0.135000
     26 H6          -1.3130    20.5790   -51.5640 ha         1 QGP       0.096000
     27 H7          -1.7730    17.4560   -48.6280 ha         1 QGP       0.104000
     28 H8          -8.7680    16.3450   -53.1360 hc         1 QGP       0.027200
     29 H9          -7.4160    15.4860   -52.4480 hc         1 QGP       0.027200
     30 H10         -9.9330    16.3230   -50.9330 h1         1 QGP       0.071700
     31 H11         -9.1030    14.9150   -49.1660 hn         1 QGP       0.355500
     32 H12         -7.7620    14.5560   -49.9860 hn         1 QGP       0.355500
     33 H16         -7.8890    22.1180   -51.0930 hc         1 QGP       0.025700
     34 H17         -9.3380    21.2360   -50.6650 hc         1 QGP       0.025700
     35 H3         -10.1560    20.1490   -52.6130 ho         1 QGP       0.500000
     36 Cl0         -4.5360    16.8640   -48.7500 cl         1 QGP      -0.211000
     37 O2          -9.2750    13.3270   -52.0250 o          1 QGP      -0.764000
     38 P           -9.2980    21.8440   -52.9890 p5         1 QGP       1.412400
     39 Cl6          0.3230    19.1210   -49.6890 cl         1 QGP      -0.297000
@<TRIPOS>BOND
     1     1     2 ar  
     2     1     6 ar  
     3     1    22 1   
     4     2     3 ar  
     5     2    21 1   
     6     3     4 ar  
     7     3    23 1   
     8     4     5 ar  
     9     4     9 1   
    10     5     6 ar  
    11     5    24 1   
    12     6    13 1   
    13     7     9 ar  
    14     7    12 ar  
    15     7    36 1   
    16     8    11 ar  
    17     8    12 ar  
    18     8    39 1   
    19     9    10 ar  
    20    10    11 ar  
    21    10    25 1   
    22    11    26 1   
    23    12    27 1   
    24    13    14 1   
    25    13    28 1   
    26    13    29 1   
    27    14    15 1   
    28    14    16 1   
    29    14    30 1   
    30    15    31 1   
    31    15    32 1   
    32    16    17 1   
    33    16    37 1   
    34    18    35 1   
    35    18    38 1   
    36    19    38 1   
    37    20    38 1   
    38    21    33 1   
    39    21    34 1   
    40    21    38 1   
@<TRIPOS>SUBSTRUCTURE
     1 QGP         1 TEMP              0 ****  ****    0 ROOT
