@<TRIPOS>MOLECULE
QGP
   39    40     1     0     0
SMALL
abcg2


@<TRIPOS>ATOM
      1 C4          -8.3810    18.7190   -51.8180 ca         1 QGP       0.563700
      2 C5          -7.7380    19.9350   -51.4310 ca         1 QGP      -0.173300
      3 C6          -6.3940    19.9310   -51.0930 ca         1 QGP      -0.040000
      4 C7          -5.6250    18.7640   -51.0830 cp         1 QGP      -0.263000
      5 C8          -6.2600    17.5760   -51.4470 ca         1 QGP      -0.016000
      6 C9          -7.5950    17.5300   -51.8040 ca         1 QGP      -0.214300
      7 C10         -3.5750    17.9720   -49.8080 ca         1 QGP       0.081000
      8 C11         -1.4610    19.0360   -50.1200 ca         1 QGP       0.044000
      9 C12         -4.1980    18.8210   -50.7300 cp         1 QGP       0.108000
     10 C13         -3.3770    19.7910   -51.3180 ca         1 QGP      -0.135000
     11 C14         -2.0300    19.9150   -51.0260 ca         1 QGP      -0.108000
     12 C15         -2.2250    18.0620   -49.5030 ca         1 QGP      -0.105000
     13 C16         -8.2340    16.2230   -52.1730 c3         1 QGP       0.026900
     14 CA          -9.1490    15.6360   -51.0850 c3         1 QGP       0.014500
     15 N           -8.4000    15.4360   -49.8520 n8         1 QGP      -0.968200
     16 C           -9.8720    14.3770   -51.6340 c          1 QGP       0.687000
     17 O          -10.5860    14.5560   -52.6440 o          1 QGP      -0.764000
     18 O3         -10.3310    20.8100   -53.3110 oh         1 QGP      -0.857400
     19 O4          -8.0930    21.9060   -53.9690 o          1 QGP      -0.871500
     20 O5          -9.8770    23.2150   -52.6130 o          1 QGP      -0.871500
     21 C1          -8.5320    21.2080   -51.3440 c3         1 QGP      -0.378100
     22 O6          -9.6230    18.6830   -52.1590 o          1 QGP      -0.755700
     23 H1          -5.9360    20.8670   -50.7890 ha         1 QGP       0.063000
     24 H2          -5.6900    16.6540   -51.4760 ha         1 QGP       0.068000
     25 H4          -3.8150    20.4620   -52.0450 ha         1 QGP       0.135000
     26 H6          -1.4340    20.6770   -51.5090 ha         1 QGP       0.096000
     27 H7          -1.7830    17.3890   -48.7810 ha         1 QGP       0.104000
     28 H8          -8.8230    16.3330   -53.0830 hc         1 QGP       0.027200
     29 H9          -7.4500    15.4890   -52.3960 hc         1 QGP       0.027200
     30 H10         -9.9210    16.3840   -50.8800 h1         1 QGP       0.071700
     31 H11         -9.0230    15.0270   -49.1660 hn         1 QGP       0.355500
     32 H12         -7.7070    14.7130   -50.0160 hn         1 QGP       0.355500
     33 H16         -7.9090    21.9880   -50.8950 hc         1 QGP       0.025700
     34 H17         -9.3840    21.0810   -50.6660 hc         1 QGP       0.025700
     35 H3         -10.1040    19.9250   -52.8610 ho         1 QGP       0.500000
     36 CL0         -4.4870    16.7840   -48.9290 cl         1 QGP      -0.211000
     37 O2          -9.6910    13.2980   -51.0350 o          1 QGP      -0.764000
     38 P           -9.1880    21.9060   -52.9270 p5         1 QGP       1.412400
     39 CL6          0.2260    19.1530   -49.7420 cl         1 QGP      -0.297000
@<TRIPOS>BOND
     1     1     2 ar  
     2     1     6 ar  
     3     1    22 1   
     4     2     3 ar  
     5     2    21 1   
     6     3     4 ar  
     7     3    23 1   
     8     4     5 ar  
     9     4     9 1   
    10     5     6 ar  
    11     5    24 1   
    12     6    13 1   
    13     7     9 ar  
    14     7    12 ar  
    15     7    36 1   
    16     8    11 ar  
    17     8    12 ar  
    18     8    39 1   
    19     9    10 ar  
    20    10    11 ar  
    21    10    25 1   
    22    11    26 1   
    23    12    27 1   
    24    13    14 1   
    25    13    28 1   
    26    13    29 1   
    27    14    15 1   
    28    14    16 1   
    29    14    30 1   
    30    15    31 1   
    31    15    32 1   
    32    16    17 1   
    33    16    37 1   
    34    18    35 1   
    35    18    38 1   
    36    19    38 1   
    37    20    38 1   
    38    21    33 1   
    39    21    34 1   
    40    21    38 1   
@<TRIPOS>SUBSTRUCTURE
     1 QGP         1 TEMP              0 ****  ****    0 ROOT
