@<TRIPOS>MOLECULE
QGQ
   29    30     1     0     0
SMALL
bcc


@<TRIPOS>ATOM
      1 N1          29.9810    15.4080    -2.6760 nb         1 QGQ      -0.735000
      2 C4          30.2380    15.2940     0.1980 c3         1 QGQ       0.108000
      3 C5          31.3090    16.3160     0.1230 cc         1 QGQ      -0.364900
      4 C6          31.3740    17.5450     0.8410 cc         1 QGQ       0.357600
      5 C7          30.3860    18.0740     1.8160 c3         1 QGQ      -0.136400
      6 C8          32.4510    16.3130    -0.6120 cd         1 QGQ       0.331000
      7 C10         30.1000    15.4780    -3.9940 ca         1 QGQ       0.661900
      8 C9          33.0520    15.3450    -1.5550 c3         1 QGQ      -0.136400
      9 O           33.1330    17.4350    -0.3620 os         1 QGQ      -0.121100
     10 N           32.4560    18.2010     0.5450 nd         1 QGQ      -0.365300
     11 S           28.6310    15.8850    -0.4260 ss         1 QGQ      -0.328400
     12 C3          28.8940    15.9530    -2.1560 ca         1 QGQ       0.564600
     13 C2          27.9280    16.5660    -2.9500 ca         1 QGQ      -0.352600
     14 N2          29.2490    16.0230    -4.8400 nb         1 QGQ      -0.713000
     15 C1          28.1460    16.5740    -4.3160 ca         1 QGQ       0.463600
     16 C           27.1690    17.1860    -5.2650 c3         1 QGQ      -0.151400
     17 H1          30.0200    15.0230     1.2330 h1         1 QGQ       0.084700
     18 H2          30.5100    14.3800    -0.3260 h1         1 QGQ       0.084700
     19 H3          30.7230    19.0140     2.2480 hc         1 QGQ       0.058033
     20 H4          29.4220    18.2400     1.3340 hc         1 QGQ       0.058033
     21 H5          30.2250    17.3610     2.6250 hc         1 QGQ       0.058033
     22 H6          30.9950    15.0330    -4.4170 h5         1 QGQ       0.046100
     23 H7          33.2250    15.8010    -2.5310 hc         1 QGQ       0.065033
     24 H8          34.0100    14.9800    -1.1820 hc         1 QGQ       0.065033
     25 H9          32.3870    14.4980    -1.6960 hc         1 QGQ       0.065033
     26 H10         27.0450    17.0200    -2.5200 ha         1 QGQ       0.160000
     27 H11         26.6960    16.4090    -5.8680 hc         1 QGQ       0.058033
     28 H12         26.3870    17.7330    -4.7440 hc         1 QGQ       0.058033
     29 H13         27.6750    17.8640    -5.9530 hc         1 QGQ       0.058033
@<TRIPOS>BOND
     1     1     7 ar  
     2     1    12 ar  
     3     2     3 1   
     4     2    11 1   
     5     2    17 1   
     6     2    18 1   
     7     3     4 1   
     8     3     6 2   
     9     4     5 1   
    10     4    10 2   
    11     5    19 1   
    12     5    20 1   
    13     5    21 1   
    14     6     8 1   
    15     6     9 1   
    16     7    14 ar  
    17     7    22 1   
    18     8    23 1   
    19     8    24 1   
    20     8    25 1   
    21     9    10 1   
    22    11    12 1   
    23    12    13 ar  
    24    13    15 ar  
    25    13    26 1   
    26    14    15 ar  
    27    15    16 1   
    28    16    27 1   
    29    16    28 1   
    30    16    29 1   
@<TRIPOS>SUBSTRUCTURE
     1 QGQ         1 TEMP              0 ****  ****    0 ROOT
