@<TRIPOS>MOLECULE
QGQ
   29    30     1     0     0
SMALL
No Charge or Current Charge


@<TRIPOS>ATOM
      1 N1          29.2370    14.0240    -2.6540 nb         1 QGQ      -0.209000
      2 C4          30.4820    15.1950     0.3970 c3         1 QGQ       0.155900
      3 C5          31.0090    16.5290    -0.0650 cc         1 QGQ      -0.234300
      4 C6          30.7710    17.7740     0.5550 cc         1 QGQ       0.292300
      5 C7          29.9460    17.9270     1.8020 c3         1 QGQ      -0.136400
      6 C8          31.7780    16.8460    -1.1410 cd         1 QGQ       0.221300
      7 C10         29.3750    14.1960    -3.9850 ca         1 QGQ       0.135900
      8 C9          32.3590    15.9850    -2.2270 c3         1 QGQ      -0.136400
      9 O           32.0030    18.1960    -1.1800 os         1 QGQ      -0.076700
     10 N           31.3360    18.7990    -0.0600 nd         1 QGQ      -0.365300
     11 S           28.7410    14.9570    -0.1730 ss         1 QGQ      -0.376300
     12 C3          28.8980    15.1150    -1.9400 ca         1 QGQ       0.236300
     13 C2          28.7020    16.3620    -2.5550 ca         1 QGQ      -0.204000
     14 N2          29.2140    15.3500    -4.6690 nb         1 QGQ      -0.187000
     15 C1          28.8780    16.4380    -3.9470 ca         1 QGQ       0.135300
     16 C           28.7000    17.7440    -4.6980 c3         1 QGQ      -0.151400
     17 H1          30.5160    15.1330     1.4920 h1         1 QGQ       0.084700
     18 H2          31.1050    14.3850    -0.0040 h1         1 QGQ       0.084700
     19 H3          29.8650    18.9790     2.0990 hc         1 QGQ       0.058033
     20 H4          28.9310    17.5450     1.6450 hc         1 QGQ       0.058033
     21 H5          30.3950    17.3760     2.6350 hc         1 QGQ       0.058033
     22 H6          29.6480    13.3170    -4.5660 h5         1 QGQ       0.046100
     23 H7          31.9580    16.2720    -3.2050 hc         1 QGQ       0.065033
     24 H8          33.4490    16.0900    -2.2650 hc         1 QGQ       0.065033
     25 H9          32.1290    14.9250    -2.0690 hc         1 QGQ       0.065033
     26 H10         28.4360    17.2370    -1.9690 ha         1 QGQ       0.142000
     27 H11         27.6620    17.8640    -5.0300 hc         1 QGQ       0.058033
     28 H12         28.9510    18.6030    -4.0640 hc         1 QGQ       0.058033
     29 H13         29.3440    17.7890    -5.5840 hc         1 QGQ       0.058033
@<TRIPOS>BOND
     1     1     7 ar  
     2     1    12 ar  
     3     2     3 1   
     4     2    11 1   
     5     2    17 1   
     6     2    18 1   
     7     3     4 1   
     8     3     6 2   
     9     4     5 1   
    10     4    10 2   
    11     5    19 1   
    12     5    20 1   
    13     5    21 1   
    14     6     8 1   
    15     6     9 1   
    16     7    14 ar  
    17     7    22 1   
    18     8    23 1   
    19     8    24 1   
    20     8    25 1   
    21     9    10 1   
    22    11    12 1   
    23    12    13 ar  
    24    13    15 ar  
    25    13    26 1   
    26    14    15 ar  
    27    15    16 1   
    28    16    27 1   
    29    16    28 1   
    30    16    29 1   
@<TRIPOS>SUBSTRUCTURE
     1 QGQ         1 TEMP              0 ****  ****    0 ROOT
