@<TRIPOS>MOLECULE
QGR
   43    46     1     0     0
SMALL
abcg2


@<TRIPOS>ATOM
      1 C14         72.7240     6.7800     9.2270 c          1 QGR       0.664300
      2 C11         73.2830     9.0620     8.3060 cc         1 QGR       0.354900
      3 C13         72.4220     7.9570     8.4340 cd         1 QGR      -0.491000
      4 C02         74.0930    11.2900     5.9560 ca         1 QGR      -0.085300
      5 C03         74.6770    12.5040     5.6050 ca         1 QGR      -0.078000
      6 C04         74.5020    13.6390     6.3840 ca         1 QGR      -0.121000
      7 C05         73.7320    13.5820     7.5390 ca         1 QGR       0.134100
      8 C07         73.1170    12.3860     7.9340 ca         1 QGR      -0.140300
      9 C08         72.2810    12.3450     9.1810 c3         1 QGR      -0.055800
     10 C09         73.3210    11.2660     7.1220 ca         1 QGR       0.017800
     11 C17         71.2660     8.2590     7.6610 ca         1 QGR       0.424800
     12 C19         69.2430     8.2010     6.6290 ca         1 QGR       0.237000
     13 C20         68.0280     7.5400     6.3500 ca         1 QGR      -0.056000
     14 C21         67.0960     8.1470     5.5470 ca         1 QGR      -0.002900
     15 C23         67.3080     9.4140     4.9800 ca         1 QGR      -0.093000
     16 C24         68.4890    10.0710     5.2420 ca         1 QGR      -0.069000
     17 C25         69.4730     9.4930     6.0640 ca         1 QGR       0.224000
     18 C27         71.4730     9.5710     7.0760 ca         1 QGR       0.379500
     19 N10         72.7120    10.0270     7.4950 na         1 QGR      -0.184200
     20 N15         71.7790     5.8130     9.2280 nt         1 QGR      -0.597000
     21 N18         70.1610     7.5840     7.4360 nb         1 QGR      -0.664000
     22 N26         70.6370    10.1870     6.3100 nb         1 QGR      -0.637000
     23 O06         73.6030    14.7360     8.2600 oh         1 QGR      -0.537100
     24 O16         73.7880     6.6690     9.8650 o          1 QGR      -0.690100
     25 BR22        65.4450     7.2470     5.1830 br         1 QGR      -0.103100
     26 H1          74.7860     9.2650     5.6910 hc         1 QGR       0.051033
     27 H2          73.3300     9.6470     4.7820 hc         1 QGR       0.051033
     28 H3          74.8930    10.2760     4.2470 hc         1 QGR       0.051033
     29 H4          75.2800    12.5620     4.7080 ha         1 QGR       0.125000
     30 H5          74.9610    14.5790     6.1050 ha         1 QGR       0.137000
     31 H6          72.8780    12.5950    10.0630 hc         1 QGR       0.053033
     32 H7          71.4590    13.0650     9.1240 hc         1 QGR       0.053033
     33 H8          71.8460    11.3630     9.3450 hc         1 QGR       0.053033
     34 H9          67.8570     6.5630     6.7820 ha         1 QGR       0.144000
     35 H10         66.5550     9.8630     4.3490 ha         1 QGR       0.134000
     36 H11         68.6800    11.0490     4.8190 ha         1 QGR       0.134000
     37 H12         74.8200     8.4860     9.4420 hn         1 QGR       0.530500
     38 H13         75.0130    10.0730     8.7120 hn         1 QGR       0.530500
     39 H14         71.9280     4.9740     9.7650 hn         1 QGR       0.327500
     40 H15         70.9220     5.9340     8.7040 hn         1 QGR       0.327500
     41 H16         73.0810    14.5870     9.0590 ho         1 QGR       0.469000
     42 N12         74.4790     9.2300     8.8480 nv         1 QGR      -0.955000
     43 C01         74.2850    10.0530     5.1230 c3         1 QGR      -0.045800
@<TRIPOS>BOND
     1     1     3 1   
     2     1    20 1   
     3     1    24 2   
     4     2     3 2   
     5     2    19 1   
     6     2    42 1   
     7     3    11 1   
     8     4     5 ar  
     9     4    10 ar  
    10     4    43 1   
    11     5     6 ar  
    12     5    29 1   
    13     6     7 ar  
    14     6    30 1   
    15     7     8 ar  
    16     7    23 1   
    17     8     9 1   
    18     8    10 ar  
    19     9    31 1   
    20     9    32 1   
    21     9    33 1   
    22    10    19 1   
    23    11    18 ar  
    24    11    21 ar  
    25    12    13 ar  
    26    12    17 ar  
    27    12    21 ar  
    28    13    14 ar  
    29    13    34 1   
    30    14    15 ar  
    31    14    25 1   
    32    15    16 ar  
    33    15    35 1   
    34    16    17 ar  
    35    16    36 1   
    36    17    22 ar  
    37    18    19 1   
    38    18    22 ar  
    39    20    39 1   
    40    20    40 1   
    41    23    41 1   
    42    26    43 1   
    43    27    43 1   
    44    28    43 1   
    45    37    42 1   
    46    38    42 1   
@<TRIPOS>SUBSTRUCTURE
     1 QGR         1 TEMP              0 ****  ****    0 ROOT
