@<TRIPOS>MOLECULE
QGR
   43    46     1     0     0
SMALL
No Charge or Current Charge


@<TRIPOS>ATOM
      1 C14         72.6820     6.8090     9.1790 c          1 QGR       0.664300
      2 C11         73.3450     9.0580     8.2960 cc         1 QGR       0.354900
      3 C13         72.4480     8.0230     8.3930 cd         1 QGR      -0.491000
      4 C02         74.1420    11.2940     5.9680 ca         1 QGR      -0.085300
      5 C03         74.7580    12.5070     5.6120 ca         1 QGR      -0.078000
      6 C04         74.5820    13.6470     6.4060 ca         1 QGR      -0.121000
      7 C05         73.7910    13.5920     7.5610 ca         1 QGR       0.134100
      8 C07         73.1620    12.3850     7.9460 ca         1 QGR      -0.140300
      9 C08         72.2970    12.3560     9.2180 c3         1 QGR      -0.055800
     10 C09         73.3430    11.2290     7.1370 ca         1 QGR       0.017800
     11 C17         71.2770     8.3560     7.6120 ca         1 QGR       0.424800
     12 C19         69.2220     8.1830     6.6420 ca         1 QGR       0.237000
     13 C20         68.0230     7.4930     6.3890 ca         1 QGR      -0.056000
     14 C21         67.0260     8.0550     5.5760 ca         1 QGR      -0.002900
     15 C23         67.2130     9.3190     5.0010 ca         1 QGR      -0.093000
     16 C24         68.4020    10.0280     5.2390 ca         1 QGR      -0.069000
     17 C25         69.4180     9.4890     6.0500 ca         1 QGR       0.224000
     18 C27         71.4830     9.6140     7.0490 ca         1 QGR       0.379500
     19 N10         72.7350    10.0190     7.4800 na         1 QGR      -0.184200
     20 N15         71.7020     5.9010     9.1520 nt         1 QGR      -0.597000
     21 N18         70.1680     7.6040     7.4380 nb         1 QGR      -0.664000
     22 N26         70.5580    10.2120     6.2540 nb         1 QGR      -0.637000
     23 O06         73.6440    14.7310     8.3010 oh         1 QGR      -0.537100
     24 O16         73.6880     6.6020     9.8330 o          1 QGR      -0.690100
     25 Br22        65.4060     7.0910     5.2510 br         1 QGR      -0.103100
     26 H1          74.8070     9.2450     5.6380 hc         1 QGR       0.051033
     27 H2          73.3940     9.7090     4.6740 hc         1 QGR       0.051033
     28 H3          75.0010    10.2860     4.2250 hc         1 QGR       0.051033
     29 H4          75.3730    12.5690     4.7170 ha         1 QGR       0.125000
     30 H5          75.0600    14.5820     6.1230 ha         1 QGR       0.137000
     31 H6          72.8740    12.6780    10.0940 hc         1 QGR       0.053033
     32 H7          71.4340    13.0240     9.1180 hc         1 QGR       0.053033
     33 H8          71.8990    11.3650     9.4590 hc         1 QGR       0.053033
     34 H9          67.8680     6.5130     6.8300 ha         1 QGR       0.144000
     35 H10         66.4390     9.7520     4.3710 ha         1 QGR       0.134000
     36 H11         68.5410    11.0080     4.7900 ha         1 QGR       0.134000
     37 H12         74.8610     8.5250     9.5340 hn         1 QGR       0.530500
     38 H13         74.9930    10.1310     8.8800 hn         1 QGR       0.530500
     39 H14         71.7990     5.0440     9.6730 hn         1 QGR       0.327500
     40 H15         70.8750     6.0970     8.6050 hn         1 QGR       0.327500
     41 H16         73.0520    14.5340     9.0560 ho         1 QGR       0.469000
     42 N12         74.5720     9.2080     8.8350 nv         1 QGR      -0.955000
     43 C01         74.3480    10.0680     5.0780 c3         1 QGR      -0.045800
@<TRIPOS>BOND
     1     1     3 1   
     2     1    20 1   
     3     1    24 2   
     4     2     3 2   
     5     2    19 1   
     6     2    42 1   
     7     3    11 1   
     8     4     5 ar  
     9     4    10 ar  
    10     4    43 1   
    11     5     6 ar  
    12     5    29 1   
    13     6     7 ar  
    14     6    30 1   
    15     7     8 ar  
    16     7    23 1   
    17     8     9 1   
    18     8    10 ar  
    19     9    31 1   
    20     9    32 1   
    21     9    33 1   
    22    10    19 1   
    23    11    18 ar  
    24    11    21 ar  
    25    12    13 ar  
    26    12    17 ar  
    27    12    21 ar  
    28    13    14 ar  
    29    13    34 1   
    30    14    15 ar  
    31    14    25 1   
    32    15    16 ar  
    33    15    35 1   
    34    16    17 ar  
    35    16    36 1   
    36    17    22 ar  
    37    18    19 1   
    38    18    22 ar  
    39    20    39 1   
    40    20    40 1   
    41    23    41 1   
    42    26    43 1   
    43    27    43 1   
    44    28    43 1   
    45    37    42 1   
    46    38    42 1   
@<TRIPOS>SUBSTRUCTURE
     1 QGR         1 TEMP              0 ****  ****    0 ROOT
