@<TRIPOS>MOLECULE
QGS
   61    65     1     0     0
SMALL
No Charge or Current Charge


@<TRIPOS>ATOM
      1 C1          37.7460     3.1760    -7.7830 cc         1 QGS      -0.161100
      2 C2          37.8460     1.8990    -8.3050 cd         1 QGS      -0.273200
      3 C11         34.5960     5.8430    -5.2290 ca         1 QGS      -0.116300
      4 C12         35.1570     7.1310    -5.3320 ca         1 QGS      -0.101000
      5 C13         35.3920     4.6110    -5.6580 c3         1 QGS       0.183600
      6 C15         34.2400     2.0330    -8.2410 ca         1 QGS      -0.125600
      7 C16         33.8470     0.7690    -8.7500 ca         1 QGS      -0.104000
      8 C17         34.8030    -0.1930    -9.1430 ca         1 QGS      -0.147000
      9 C18         36.1760     0.0890    -9.0350 ca         1 QGS      -0.107000
     10 C19         34.2610    10.5560    -6.0430 c3         1 QGS      -0.082600
     11 C20         35.2070    10.3300    -3.6780 c3         1 QGS      -0.082600
     12 C21         28.8280     7.4560    -3.5800 ca         1 QGS      -0.191300
     13 C22         28.5150     6.3660    -2.8010 ca         1 QGS       0.111100
     14 C23         29.4730     5.4030    -2.4730 ca         1 QGS      -0.133000
     15 C24         30.7810     5.5540    -2.9760 ca         1 QGS      -0.041000
     16 C25         31.1330     6.6660    -3.7960 cp         1 QGS      -0.065000
     17 C26         30.1260     7.6270    -4.0900 ca         1 QGS      -0.032000
     18 C27         27.6420     8.3460    -3.7570 c5         1 QGS       0.192800
     19 C28         26.5440     7.3460    -3.2060 c5         1 QGS       0.106600
     20 N3          36.3590     3.4100    -7.6810 na         1 QGS      -0.067700
     21 C4          35.6320     2.2950    -8.1380 ca         1 QGS      -0.020200
     22 C5          36.5420     1.3400    -8.5290 ca         1 QGS      -0.109800
     23 C6          35.7510     4.6540    -7.1650 c3         1 QGS       0.080600
     24 C7          34.4240     8.2690    -4.9440 ca         1 QGS      -0.098300
     25 C8          33.1160     8.1050    -4.4460 ca         1 QGS      -0.104000
     26 C9          32.5240     6.8250    -4.3270 cp         1 QGS      -0.034000
     27 C10         33.2870     5.7000    -4.7270 ca         1 QGS      -0.074000
     28 O29         27.2160     6.3390    -2.3750 os         1 QGS      -0.334100
     29 N30         27.8510     9.5550    -2.9420 n8         1 QGS      -0.989200
     30 O31         36.5850     4.5270    -4.8630 oh         1 QGS      -0.662000
     31 C32         33.1660     3.0090    -7.8500 c          1 QGS       0.710600
     32 O33         32.6480     2.8770    -6.7520 o          1 QGS      -0.723500
     33 O34         32.7870     3.8100    -8.6910 o          1 QGS      -0.723500
     34 H1          38.4990     3.8980    -7.4820 h4         1 QGS       0.193000
     35 H2          38.7860     1.3920    -8.5120 ha         1 QGS       0.181000
     36 H3          36.1690     7.2480    -5.7130 ha         1 QGS       0.111000
     37 H4          34.7740     3.7180    -5.4890 h1         1 QGS       0.088700
     38 H5          36.0610     9.5600    -5.4750 hc         1 QGS       0.043700
     39 H6          32.7880     0.5360    -8.8410 ha         1 QGS       0.112000
     40 H7          34.4760    -1.1550    -9.5310 ha         1 QGS       0.084000
     41 H8          36.9260    -0.6390    -9.3340 ha         1 QGS       0.087000
     42 H9          34.7680    11.5190    -6.1800 hc         1 QGS       0.030367
     43 H10         34.1820    10.0720    -7.0240 hc         1 QGS       0.030367
     44 H11         33.2480    10.7530    -5.6740 hc         1 QGS       0.030367
     45 H12         35.7310    11.2890    -3.7700 hc         1 QGS       0.030367
     46 H13         34.2310    10.5170    -3.2150 hc         1 QGS       0.030367
     47 H14         35.7890     9.6880    -3.0060 hc         1 QGS       0.030367
     48 H15         29.2120     4.5550    -1.8450 ha         1 QGS       0.134000
     49 H16         31.5330     4.8120    -2.7150 ha         1 QGS       0.154000
     50 H17         30.3480     8.4900    -4.7130 ha         1 QGS       0.116000
     51 H18         27.4710     8.6250    -4.8080 h1         1 QGS       0.073700
     52 H19         25.7550     7.8440    -2.6270 h1         1 QGS       0.050700
     53 H20         26.0660     6.8210    -4.0430 h1         1 QGS       0.050700
     54 H21         36.4630     5.4710    -7.3310 h1         1 QGS       0.081200
     55 H22         34.8630     4.9020    -7.7530 h1         1 QGS       0.081200
     56 H23         32.5550     8.9810    -4.1320 ha         1 QGS       0.104000
     57 H24         32.8460     4.7080    -4.6650 ha         1 QGS       0.171000
     58 H25         26.9880    10.1100    -2.9350 hn         1 QGS       0.394500
     59 H26         27.9660     9.2670    -1.9650 hn         1 QGS       0.394500
     60 H28         36.3100     4.6700    -3.9310 ho         1 QGS       0.438000
     61 C14         35.0500     9.6610    -5.0610 c3         1 QGS      -0.011400
@<TRIPOS>BOND
     1     1     2 2   
     2     1    20 1   
     3     1    34 1   
     4     2    22 1   
     5     2    35 1   
     6     3     4 ar  
     7     3     5 1   
     8     3    27 ar  
     9     4    24 ar  
    10     4    36 1   
    11     5    23 1   
    12     5    30 1   
    13     5    37 1   
    14     6     7 ar  
    15     6    21 ar  
    16     6    31 1   
    17     7     8 ar  
    18     7    39 1   
    19     8     9 ar  
    20     8    40 1   
    21     9    22 ar  
    22     9    41 1   
    23    10    42 1   
    24    10    43 1   
    25    10    44 1   
    26    10    61 1   
    27    11    45 1   
    28    11    46 1   
    29    11    47 1   
    30    11    61 1   
    31    12    13 ar  
    32    12    17 ar  
    33    12    18 1   
    34    13    14 ar  
    35    13    28 1   
    36    14    15 ar  
    37    14    48 1   
    38    15    16 ar  
    39    15    49 1   
    40    16    17 ar  
    41    16    26 1   
    42    17    50 1   
    43    18    19 1   
    44    18    29 1   
    45    18    51 1   
    46    19    28 1   
    47    19    52 1   
    48    19    53 1   
    49    20    21 1   
    50    20    23 1   
    51    21    22 ar  
    52    23    54 1   
    53    23    55 1   
    54    24    25 ar  
    55    24    61 1   
    56    25    26 ar  
    57    25    56 1   
    58    26    27 ar  
    59    27    57 1   
    60    29    58 1   
    61    29    59 1   
    62    30    60 1   
    63    31    32 1   
    64    31    33 1   
    65    38    61 1   
@<TRIPOS>SUBSTRUCTURE
     1 QGS         1 TEMP              0 ****  ****    0 ROOT
