@<TRIPOS>MOLECULE
QGS
   61    65     1     0     0
SMALL
abcg2


@<TRIPOS>ATOM
      1 C1          36.6550     3.6450    -9.0720 cc         1 QGS      -0.161100
      2 C2          37.1430     2.4040    -9.3420 cd         1 QGS      -0.273200
      3 C11         34.6540     6.0330    -5.5530 ca         1 QGS      -0.116300
      4 C12         35.2820     7.2420    -5.2780 ca         1 QGS      -0.101000
      5 C13         35.3900     4.8750    -6.1920 c3         1 QGS       0.183600
      6 C15         34.3140     1.6210    -7.2020 ca         1 QGS      -0.125600
      7 C16         34.4080     0.2430    -7.0690 ca         1 QGS      -0.104000
      8 C17         35.3840    -0.5180    -7.7260 ca         1 QGS      -0.147000
      9 C18         36.3280     0.0890    -8.5260 ca         1 QGS      -0.107000
     10 C19         34.6510    10.7540    -5.1690 c3         1 QGS      -0.082600
     11 C20         35.2920     9.8990    -2.8880 c3         1 QGS      -0.082600
     12 C21         28.9280     7.5860    -4.0440 ca         1 QGS      -0.191300
     13 C22         28.4720     6.3210    -3.7080 ca         1 QGS       0.111100
     14 C23         29.3290     5.2340    -3.6590 ca         1 QGS      -0.133000
     15 C24         30.6660     5.4560    -3.9630 ca         1 QGS      -0.041000
     16 C25         31.1560     6.7210    -4.3110 cp         1 QGS      -0.065000
     17 C26         30.2590     7.7960    -4.3350 ca         1 QGS      -0.032000
     18 C27         27.7820     8.5520    -3.9170 c5         1 QGS       0.192800
     19 C28         26.6040     7.5550    -3.8280 c5         1 QGS       0.106600
     20 N3          35.5410     3.5660    -8.2800 na         1 QGS      -0.067700
     21 C4          35.2950     2.2370    -7.9970 ca         1 QGS      -0.020200
     22 C5          36.3010     1.4820    -8.6520 ca         1 QGS      -0.109800
     23 C6          34.9530     4.7250    -7.6490 c3         1 QGS       0.080600
     24 C7          34.5830     8.2910    -4.6860 ca         1 QGS      -0.098300
     25 C8          33.2410     8.1090    -4.3680 ca         1 QGS      -0.104000
     26 C9          32.5830     6.9100    -4.6460 cp         1 QGS      -0.034000
     27 C10         33.3080     5.8820    -5.2450 ca         1 QGS      -0.074000
     28 O29         27.1520     6.2820    -3.4430 os         1 QGS      -0.334100
     29 N30         27.9930     9.4410    -2.7900 n8         1 QGS      -0.989200
     30 O31         36.7860     5.0270    -6.1880 oh         1 QGS      -0.662000
     31 C32         33.1270     2.3230    -6.5570 c          1 QGS       0.710600
     32 O33         32.9680     2.1380    -5.3370 o          1 QGS      -0.723500
     33 O34         32.4010     2.9870    -7.3240 o          1 QGS      -0.723500
     34 H1          37.0170     4.6110    -9.3900 h4         1 QGS       0.193000
     35 H2          38.0030     2.1730    -9.9510 ha         1 QGS       0.181000
     36 H3          36.3290     7.3770    -5.5200 ha         1 QGS       0.111000
     37 H4          35.1020     3.9620    -5.6530 h1         1 QGS       0.088700
     38 H5          36.3160     9.4990    -4.7150 hc         1 QGS       0.043700
     39 H6          33.6800    -0.2680    -6.4500 ha         1 QGS       0.112000
     40 H7          35.3890    -1.5940    -7.6010 ha         1 QGS       0.084000
     41 H8          37.0850    -0.4940    -9.0370 ha         1 QGS       0.087000
     42 H9          35.1940    11.6830    -4.9840 hc         1 QGS       0.030367
     43 H10         34.6690    10.5630    -6.2420 hc         1 QGS       0.030367
     44 H11         33.6120    10.9150    -4.8750 hc         1 QGS       0.030367
     45 H12         35.8460    10.8170    -2.6850 hc         1 QGS       0.030367
     46 H13         34.2810    10.0320    -2.4980 hc         1 QGS       0.030367
     47 H14         35.7630     9.0920    -2.3250 hc         1 QGS       0.030367
     48 H15         28.9800     4.2470    -3.3870 ha         1 QGS       0.134000
     49 H16         31.3430     4.6120    -3.9220 ha         1 QGS       0.154000
     50 H17         30.5990     8.7890    -4.6050 ha         1 QGS       0.116000
     51 H18         27.6650     9.1720    -4.8090 h1         1 QGS       0.073700
     52 H19         25.8530     7.8470    -3.0940 h1         1 QGS       0.050700
     53 H20         26.1190     7.4380    -4.8010 h1         1 QGS       0.050700
     54 H21         35.2700     5.6060    -8.2110 h1         1 QGS       0.081200
     55 H22         33.8700     4.6670    -7.7080 h1         1 QGS       0.081200
     56 H23         32.7020     8.9110    -3.8760 ha         1 QGS       0.104000
     57 H24         32.8130     4.9530    -5.5000 ha         1 QGS       0.171000
     58 H25         27.2010    10.0650    -2.6910 hn         1 QGS       0.394500
     59 H26         28.0460     8.9090    -1.9290 hn         1 QGS       0.394500
     60 H28         37.1020     4.9420    -5.2830 ho         1 QGS       0.438000
     61 C14         35.2780     9.6000    -4.3860 c3         1 QGS      -0.011400
@<TRIPOS>BOND
     1     1     2 2   
     2     1    20 1   
     3     1    34 1   
     4     2    22 1   
     5     2    35 1   
     6     3     4 ar  
     7     3     5 1   
     8     3    27 ar  
     9     4    24 ar  
    10     4    36 1   
    11     5    23 1   
    12     5    30 1   
    13     5    37 1   
    14     6     7 ar  
    15     6    21 ar  
    16     6    31 1   
    17     7     8 ar  
    18     7    39 1   
    19     8     9 ar  
    20     8    40 1   
    21     9    22 ar  
    22     9    41 1   
    23    10    42 1   
    24    10    43 1   
    25    10    44 1   
    26    10    61 1   
    27    11    45 1   
    28    11    46 1   
    29    11    47 1   
    30    11    61 1   
    31    12    13 ar  
    32    12    17 ar  
    33    12    18 1   
    34    13    14 ar  
    35    13    28 1   
    36    14    15 ar  
    37    14    48 1   
    38    15    16 ar  
    39    15    49 1   
    40    16    17 ar  
    41    16    26 1   
    42    17    50 1   
    43    18    19 1   
    44    18    29 1   
    45    18    51 1   
    46    19    28 1   
    47    19    52 1   
    48    19    53 1   
    49    20    21 1   
    50    20    23 1   
    51    21    22 ar  
    52    23    54 1   
    53    23    55 1   
    54    24    25 ar  
    55    24    61 1   
    56    25    26 ar  
    57    25    56 1   
    58    26    27 ar  
    59    27    57 1   
    60    29    58 1   
    61    29    59 1   
    62    30    60 1   
    63    31    32 1   
    64    31    33 1   
    65    38    61 1   
@<TRIPOS>SUBSTRUCTURE
     1 QGS         1 TEMP              0 ****  ****    0 ROOT
