@<TRIPOS>MOLECULE
QGT
   45    44     1     0     0
SMALL
No Charge or Current Charge


@<TRIPOS>ATOM
      1 C10         -5.9730    28.3000   -15.7810 c3         1 QGT      -0.074400
      2 C12         -7.2400    29.4170   -13.8360 c3         1 QGT      -0.074400
      3 C11         -7.3430    28.7400   -15.2210 c3         1 QGT      -0.074400
      4 C01         -6.6330    25.6930   -24.5020 cs         1 QGT       0.373200
      5 C04         -5.7660    27.3480   -22.7870 c3         1 QGT       0.080000
      6 C05         -5.2530    26.5040   -21.6020 c3         1 QGT      -0.097400
      7 C06         -5.2830    27.2710   -20.2620 c3         1 QGT      -0.072400
      8 C07         -4.7710    26.4240   -19.0720 c3         1 QGT      -0.072400
      9 C08         -4.7020    27.1850   -17.7260 c3         1 QGT      -0.072400
     10 C09         -6.0760    27.6230   -17.1660 c3         1 QGT      -0.076400
     11 C13         -8.6090    29.8580   -13.2750 c3         1 QGT      -0.074400
     12 C14         -8.5060    30.5340   -11.8900 c3         1 QGT      -0.075400
     13 C15         -9.8760    30.9750   -11.3300 c3         1 QGT      -0.075400
     14 C16         -9.7740    31.6490    -9.9480 c3         1 QGT      -0.088100
     15 N03         -5.7170    26.6110   -24.0540 ns         1 QGT      -0.396900
     16 S02         -8.0350    25.2760   -23.6780 s          1 QGT      -0.576400
     17 H1          -5.5010    27.6050   -15.0750 hc         1 QGT       0.036200
     18 H2          -5.3160    29.1750   -15.8570 hc         1 QGT       0.036200
     19 H3          -6.7680    28.7220   -13.1300 hc         1 QGT       0.036700
     20 H4          -6.5820    30.2920   -13.9110 hc         1 QGT       0.036700
     21 H5          -7.8140    29.4360   -15.9270 hc         1 QGT       0.038200
     22 H6          -8.0000    27.8650   -15.1460 hc         1 QGT       0.038200
     23 H7          -6.3620    25.2720   -25.4720 h5         1 QGT       0.041200
     24 H8          -5.1480    28.2510   -22.8860 h1         1 QGT       0.069700
     25 H9          -6.7990    27.6680   -22.5960 h1         1 QGT       0.069700
     26 H10         -5.8630    25.5970   -21.5110 hc         1 QGT       0.050700
     27 H11         -4.2260    26.1800   -21.8110 hc         1 QGT       0.050700
     28 H12         -4.6690    28.1760   -20.3510 hc         1 QGT       0.042200
     29 H13         -6.3110    27.5960   -20.0660 hc         1 QGT       0.042200
     30 H14         -5.4090    25.5390   -18.9540 hc         1 QGT       0.040200
     31 H15         -3.7660    26.0550   -19.3100 hc         1 QGT       0.040200
     32 H16         -4.2120    26.5360   -16.9900 hc         1 QGT       0.037700
     33 H17         -4.0590    28.0670   -17.8430 hc         1 QGT       0.037700
     34 H18         -6.5520    28.3220   -17.8640 hc         1 QGT       0.039700
     35 H19         -6.7310    26.7460   -17.0900 hc         1 QGT       0.039700
     36 H20         -9.0810    30.5530   -13.9810 hc         1 QGT       0.037700
     37 H21         -9.2670    28.9820   -13.2000 hc         1 QGT       0.037700
     38 H22         -8.0350    29.8390   -11.1840 hc         1 QGT       0.036700
     39 H23         -7.8490    31.4090   -11.9650 hc         1 QGT       0.036700
     40 H24        -10.3500    31.6720   -12.0320 hc         1 QGT       0.036700
     41 H25        -10.5350    30.1010   -11.2520 hc         1 QGT       0.036700
     42 H26        -10.7680    31.9440    -9.5920 hc         1 QGT       0.031700
     43 H27         -9.3350    30.9640    -9.2130 hc         1 QGT       0.031700
     44 H28         -9.1480    32.5480   -10.0000 hc         1 QGT       0.031700
     45 H29         -4.9190    26.7790   -24.6590 hn         1 QGT       0.310500
@<TRIPOS>BOND
     1     1     3 1   
     2     1    10 1   
     3     1    17 1   
     4     1    18 1   
     5     2     3 1   
     6     2    11 1   
     7     2    19 1   
     8     2    20 1   
     9     3    21 1   
    10     3    22 1   
    11     4    15 1   
    12     4    16 2   
    13     4    23 1   
    14     5     6 1   
    15     5    15 1   
    16     5    24 1   
    17     5    25 1   
    18     6     7 1   
    19     6    26 1   
    20     6    27 1   
    21     7     8 1   
    22     7    28 1   
    23     7    29 1   
    24     8     9 1   
    25     8    30 1   
    26     8    31 1   
    27     9    10 1   
    28     9    32 1   
    29     9    33 1   
    30    10    34 1   
    31    10    35 1   
    32    11    12 1   
    33    11    36 1   
    34    11    37 1   
    35    12    13 1   
    36    12    38 1   
    37    12    39 1   
    38    13    14 1   
    39    13    40 1   
    40    13    41 1   
    41    14    42 1   
    42    14    43 1   
    43    14    44 1   
    44    15    45 1   
@<TRIPOS>SUBSTRUCTURE
     1 QGT         1 TEMP              0 ****  ****    0 ROOT
