@<TRIPOS>MOLECULE
QGT
   45    44     1     0     0
SMALL
abcg2


@<TRIPOS>ATOM
      1 C10         -5.9810    28.3240   -15.8120 c3         1 QGT      -0.074400
      2 C12         -7.2430    29.4470   -13.8970 c3         1 QGT      -0.074400
      3 C11         -7.3390    28.6930   -15.2210 c3         1 QGT      -0.074400
      4 C01         -6.7410    25.9260   -24.4540 cs         1 QGT       0.373200
      5 C04         -5.6970    27.3340   -22.7090 c3         1 QGT       0.080000
      6 C05         -5.2550    26.4710   -21.5280 c3         1 QGT      -0.097400
      7 C06         -5.2500    27.2560   -20.2200 c3         1 QGT      -0.072400
      8 C07         -4.7730    26.4200   -19.0320 c3         1 QGT      -0.072400
      9 C08         -4.7130    27.1850   -17.7080 c3         1 QGT      -0.072400
     10 C09         -6.0760    27.5870   -17.1460 c3         1 QGT      -0.076400
     11 C13         -8.6020    29.7940   -13.2920 c3         1 QGT      -0.074400
     12 C14         -8.5060    30.5530   -11.9710 c3         1 QGT      -0.075400
     13 C15         -9.8640    30.8870   -11.3590 c3         1 QGT      -0.075400
     14 C16         -9.7570    31.6510   -10.0400 c3         1 QGT      -0.088100
     15 N03         -5.7140    26.5930   -23.9640 ns         1 QGT      -0.396900
     16 S02         -8.2690    25.7860   -23.7970 s          1 QGT      -0.576400
     17 H1          -5.4330    27.7020   -15.0940 hc         1 QGT       0.036200
     18 H2          -5.3850    29.2340   -15.9450 hc         1 QGT       0.036200
     19 H3          -6.6730    28.8460   -13.1800 hc         1 QGT       0.036700
     20 H4          -6.6690    30.3690   -14.0480 hc         1 QGT       0.036700
     21 H5          -7.8940    29.3020   -15.9440 hc         1 QGT       0.038200
     22 H6          -7.9280    27.7800   -15.0740 hc         1 QGT       0.038200
     23 H7          -6.5110    25.4350   -25.3970 h5         1 QGT       0.041200
     24 H8          -5.0150    28.1750   -22.8390 h1         1 QGT       0.069700
     25 H9          -6.7000    27.7250   -22.5390 h1         1 QGT       0.069700
     26 H10         -5.9280    25.6130   -21.4450 hc         1 QGT       0.050700
     27 H11         -4.2550    26.0750   -21.7300 hc         1 QGT       0.050700
     28 H12         -4.5990    28.1320   -20.3240 hc         1 QGT       0.042200
     29 H13         -6.2570    27.6390   -20.0300 hc         1 QGT       0.042200
     30 H14         -5.4290    25.5490   -18.9180 hc         1 QGT       0.040200
     31 H15         -3.7780    26.0260   -19.2620 hc         1 QGT       0.040200
     32 H16         -4.1980    26.5670   -16.9650 hc         1 QGT       0.037700
     33 H17         -4.0970    28.0830   -17.8410 hc         1 QGT       0.037700
     34 H18         -6.6060    28.2200   -17.8640 hc         1 QGT       0.039700
     35 H19         -6.6880    26.6860   -17.0190 hc         1 QGT       0.039700
     36 H20         -9.1750    30.3910   -14.0110 hc         1 QGT       0.037700
     37 H21         -9.1730    28.8710   -13.1370 hc         1 QGT       0.037700
     38 H22         -7.9250    29.9600   -11.2550 hc         1 QGT       0.036700
     39 H23         -7.9440    31.4810   -12.1280 hc         1 QGT       0.036700
     40 H24        -10.4460    31.4760   -12.0760 hc         1 QGT       0.036700
     41 H25        -10.4230    29.9590   -11.1990 hc         1 QGT       0.036700
     42 H26        -10.7420    31.8720    -9.6240 hc         1 QGT       0.031700
     43 H27         -9.2020    31.0710    -9.2970 hc         1 QGT       0.031700
     44 H28         -9.2310    32.5990   -10.1800 hc         1 QGT       0.031700
     45 H29         -4.8480    26.5520   -24.4840 hn         1 QGT       0.310500
@<TRIPOS>BOND
     1     1     3 1   
     2     1    10 1   
     3     1    17 1   
     4     1    18 1   
     5     2     3 1   
     6     2    11 1   
     7     2    19 1   
     8     2    20 1   
     9     3    21 1   
    10     3    22 1   
    11     4    15 1   
    12     4    16 2   
    13     4    23 1   
    14     5     6 1   
    15     5    15 1   
    16     5    24 1   
    17     5    25 1   
    18     6     7 1   
    19     6    26 1   
    20     6    27 1   
    21     7     8 1   
    22     7    28 1   
    23     7    29 1   
    24     8     9 1   
    25     8    30 1   
    26     8    31 1   
    27     9    10 1   
    28     9    32 1   
    29     9    33 1   
    30    10    34 1   
    31    10    35 1   
    32    11    12 1   
    33    11    36 1   
    34    11    37 1   
    35    12    13 1   
    36    12    38 1   
    37    12    39 1   
    38    13    14 1   
    39    13    40 1   
    40    13    41 1   
    41    14    42 1   
    42    14    43 1   
    43    14    44 1   
    44    15    45 1   
@<TRIPOS>SUBSTRUCTURE
     1 QGT         1 TEMP              0 ****  ****    0 ROOT
