@<TRIPOS>MOLECULE
QGV
   39    42     1     0     0
SMALL
No Charge or Current Charge


@<TRIPOS>ATOM
      1 N12         41.0400   162.5620    -6.8470 nb         1 QGV      -0.646000
      2 C13         40.9590   163.7520    -6.1990 ca         1 QGV       0.418900
      3 C15         40.5540   164.9800    -8.2550 ca         1 QGV       0.039000
      4 C20         38.5420   167.0900    -7.1600 ca         1 QGV      -0.023000
      5 C21         37.6950   168.1420    -7.5470 ca         1 QGV      -0.175000
      6 C22         38.0220   169.4680    -7.2290 ca         1 QGV      -0.033000
      7 C24         40.0410   168.6920    -6.1130 ca         1 QGV       0.219100
      8 C02         40.5360   163.3670   -10.2710 cc         1 QGV       0.393900
      9 N03         40.6850   162.0510   -10.4560 nd         1 QGV      -0.503100
     10 N04         40.8970   161.5960    -9.1470 na         1 QGV      -0.058600
     11 C05         41.1080   160.2560    -8.8240 ca         1 QGV       0.468500
     12 C06         40.0430   159.5870    -8.1790 ca         1 QGV      -0.149000
     13 C07         40.1650   158.2350    -7.8230 ca         1 QGV      -0.064000
     14 C08         41.3660   157.5820    -8.1290 ca         1 QGV      -0.173000
     15 C09         42.3840   158.2990    -8.7740 ca         1 QGV       0.357900
     16 N10         42.2630   159.6020    -9.1160 nb         1 QGV      -0.662000
     17 C11         40.8780   162.5860    -8.1840 ca         1 QGV       0.435500
     18 C14         40.7030   164.9750    -6.8530 ca         1 QGV      -0.256600
     19 C16         40.6440   163.7350    -8.8820 ca         1 QGV      -0.290900
     20 O18         41.3730   166.3510    -5.0570 o          1 QGV      -0.572100
     21 C19         39.7390   167.3550    -6.4540 ca         1 QGV      -0.290600
     22 C23         39.1940   169.7380    -6.5070 ca         1 QGV      -0.175000
     23 H1          41.0930   163.7140    -5.1180 h4         1 QGV       0.040100
     24 H2          40.3900   165.8950    -8.8230 ha         1 QGV       0.132000
     25 H3          38.2510   166.0690    -7.4010 ha         1 QGV       0.118000
     26 H4          36.7790   167.9260    -8.0940 ha         1 QGV       0.121000
     27 H5          37.3650   170.2820    -7.5300 ha         1 QGV       0.118000
     28 H6          40.2230   163.7960   -12.3610 hc         1 QGV       0.056700
     29 H7          39.3340   164.8530   -11.2470 hc         1 QGV       0.056700
     30 H8          41.0830   165.0640   -11.4660 hc         1 QGV       0.056700
     31 H9          39.1240   160.1230    -7.9590 ha         1 QGV       0.145000
     32 H10         39.3520   157.7100    -7.3250 ha         1 QGV       0.124000
     33 H11         41.5130   156.5350    -7.8760 ha         1 QGV       0.128000
     34 H12         43.3280   157.8170    -9.0260 h4         1 QGV       0.027100
     35 H13         39.4440   170.7630    -6.2450 ha         1 QGV       0.135000
     36 H14         41.5140   168.1280    -5.0670 ho         1 QGV       0.515000
     37 C17         40.6540   166.2280    -6.0420 c          1 QGV       0.621300
     38 C01         40.2800   164.3210   -11.4000 c3         1 QGV      -0.108400
     39 O25         41.1570   168.9910    -5.3940 oh         1 QGV      -0.546100
@<TRIPOS>BOND
     1     1     2 ar  
     2     1    17 ar  
     3     2    18 ar  
     4     2    23 1   
     5     3    18 ar  
     6     3    19 ar  
     7     3    24 1   
     8     4     5 ar  
     9     4    21 ar  
    10     4    25 1   
    11     5     6 ar  
    12     5    26 1   
    13     6    22 ar  
    14     6    27 1   
    15     7    21 ar  
    16     7    22 ar  
    17     7    39 1   
    18     8     9 2   
    19     8    19 1   
    20     8    38 1   
    21     9    10 1   
    22    10    11 1   
    23    10    17 1   
    24    11    12 ar  
    25    11    16 ar  
    26    12    13 ar  
    27    12    31 1   
    28    13    14 ar  
    29    13    32 1   
    30    14    15 ar  
    31    14    33 1   
    32    15    16 ar  
    33    15    34 1   
    34    17    19 ar  
    35    18    37 1   
    36    20    37 2   
    37    21    37 1   
    38    22    35 1   
    39    28    38 1   
    40    29    38 1   
    41    30    38 1   
    42    36    39 1   
@<TRIPOS>SUBSTRUCTURE
     1 QGV         1 TEMP              0 ****  ****    0 ROOT
