@<TRIPOS>MOLECULE
QGV
   39    42     1     0     0
SMALL
abcg2


@<TRIPOS>ATOM
      1 N12         41.1730   162.7530    -6.8380 nb         1 QGV      -0.646000
      2 C13         41.1820   163.9790    -6.3330 ca         1 QGV       0.418900
      3 C15         40.5180   165.0480    -8.3970 ca         1 QGV       0.039000
      4 C20         38.6920   167.2090    -7.0780 ca         1 QGV      -0.023000
      5 C21         37.7380   168.1960    -7.2240 ca         1 QGV      -0.175000
      6 C22         38.0270   169.4970    -6.8010 ca         1 QGV      -0.033000
      7 C24         40.2040   168.8010    -6.0430 ca         1 QGV       0.219100
      8 C02         40.2290   163.2150   -10.2390 cc         1 QGV       0.393900
      9 N03         40.3670   161.9110   -10.1990 nd         1 QGV      -0.503100
     10 N04         40.7650   161.5630    -8.9270 na         1 QGV      -0.058600
     11 C05         40.9510   160.1990    -8.6130 ca         1 QGV       0.468500
     12 C06         40.2070   159.2330    -9.2930 ca         1 QGV      -0.149000
     13 C07         40.4290   157.9050    -8.9710 ca         1 QGV      -0.064000
     14 C08         41.3600   157.5890    -7.9870 ca         1 QGV      -0.173000
     15 C09         42.0360   158.6290    -7.3680 ca         1 QGV       0.357900
     16 N10         41.8500   159.9160    -7.6790 nb         1 QGV      -0.662000
     17 C11         40.8630   162.6790    -8.1340 ca         1 QGV       0.435500
     18 C14         40.8620   165.1510    -7.0540 ca         1 QGV      -0.256600
     19 C16         40.5230   163.7760    -8.9560 ca         1 QGV      -0.290900
     20 O18         41.9730   166.6450    -5.6340 o          1 QGV      -0.572100
     21 C19         39.9490   167.4850    -6.5080 ca         1 QGV      -0.290600
     22 C23         39.2430   169.7990    -6.2160 ca         1 QGV      -0.175000
     23 H1          41.4360   164.0660    -5.2830 h4         1 QGV       0.040100
     24 H2          40.2770   165.9210    -8.9880 ha         1 QGV       0.132000
     25 H3          38.4630   166.2000    -7.3860 ha         1 QGV       0.118000
     26 H4          36.7750   167.9620    -7.6570 ha         1 QGV       0.121000
     27 H5          37.2860   170.2780    -6.9180 ha         1 QGV       0.118000
     28 H6          39.6550   163.2230   -12.2870 hc         1 QGV       0.056700
     29 H7          38.9070   164.5010   -11.3090 hc         1 QGV       0.056700
     30 H8          40.5970   164.6400   -11.7820 hc         1 QGV       0.056700
     31 H9          39.4840   159.5250   -10.0390 ha         1 QGV       0.145000
     32 H10         39.8730   157.1260    -9.4770 ha         1 QGV       0.124000
     33 H11         41.5570   156.5640    -7.7050 ha         1 QGV       0.128000
     34 H12         42.7710   158.4280    -6.5960 h4         1 QGV       0.027100
     35 H13         39.4660   170.7990    -5.8680 ha         1 QGV       0.135000
     36 H14         41.8680   168.2900    -5.3250 ho         1 QGV       0.515000
     37 C17         40.9780   166.4540    -6.3530 c          1 QGV       0.621300
     38 C01         39.8230   163.9310   -11.4780 c3         1 QGV      -0.108400
     39 O25         41.3560   169.1300    -5.4370 oh         1 QGV      -0.546100
@<TRIPOS>BOND
     1     1     2 ar  
     2     1    17 ar  
     3     2    18 ar  
     4     2    23 1   
     5     3    18 ar  
     6     3    19 ar  
     7     3    24 1   
     8     4     5 ar  
     9     4    21 ar  
    10     4    25 1   
    11     5     6 ar  
    12     5    26 1   
    13     6    22 ar  
    14     6    27 1   
    15     7    21 ar  
    16     7    22 ar  
    17     7    39 1   
    18     8     9 2   
    19     8    19 1   
    20     8    38 1   
    21     9    10 1   
    22    10    11 1   
    23    10    17 1   
    24    11    12 ar  
    25    11    16 ar  
    26    12    13 ar  
    27    12    31 1   
    28    13    14 ar  
    29    13    32 1   
    30    14    15 ar  
    31    14    33 1   
    32    15    16 ar  
    33    15    34 1   
    34    17    19 ar  
    35    18    37 1   
    36    20    37 2   
    37    21    37 1   
    38    22    35 1   
    39    28    38 1   
    40    29    38 1   
    41    30    38 1   
    42    36    39 1   
@<TRIPOS>SUBSTRUCTURE
     1 QGV         1 TEMP              0 ****  ****    0 ROOT
