@<TRIPOS>MOLECULE
QGW
   44    46     1     0     0
SMALL
No Charge or Current Charge


@<TRIPOS>ATOM
      1 C1          21.7830   171.6010    16.6330 ca         1 QGW       0.156100
      2 C10         17.7680   176.9690    20.2680 c3         1 QGW      -0.116400
      3 C11         23.8940   172.5270    15.8990 ca         1 QGW      -0.018000
      4 C12         24.2600   171.2870    15.3370 ca         1 QGW      -0.103300
      5 C13         23.3700   170.1960    15.4400 ca         1 QGW       0.162100
      6 C14         22.1290   170.3620    16.0780 ca         1 QGW      -0.141000
      7 C15         23.6250   167.7860    15.5180 c          1 QGW       0.598100
      8 C16         23.9730   166.6290    14.5930 c3         1 QGW      -0.155100
      9 C17         25.6100   171.1590    14.6300 c3         1 QGW      -0.023100
     10 C18         25.5930   171.7210    13.1900 c3         1 QGW      -0.072400
     11 C19         24.6420   170.9700    12.2360 c3         1 QGW      -0.088100
     12 C2          22.6510   172.6840    16.5530 ca         1 QGW      -0.218600
     13 C3          22.2450   173.9890    17.1530 c          1 QGW       0.599900
     14 C4          20.9120   174.0390    17.8170 cc         1 QGW      -0.364000
     15 C5          20.1160   172.8830    17.8380 cd         1 QGW       0.211900
     16 C6          18.7420   172.6550    18.4320 c3         1 QGW      -0.054900
     17 C7          20.4370   175.2760    18.4400 cc         1 QGW       0.506200
     18 C8          19.0500   176.6610    19.5510 cd         1 QGW       0.296300
     19 C9          20.0730   177.5410    19.3360 cc         1 QGW      -0.310000
     20 N1          19.2580   175.3910    19.0460 nd         1 QGW      -0.686000
     21 O1          20.5740   171.7340    17.2480 os         1 QGW      -0.213200
     22 O2          23.0150   174.9330    17.0710 o          1 QGW      -0.549100
     23 O3          23.6980   168.9880    14.8690 os         1 QGW      -0.367200
     24 O4          23.3330   167.6470    16.6980 o          1 QGW      -0.450000
     25 S1          21.3640   176.7790    18.4690 ss         1 QGW       0.073600
     26 H1          16.9050   176.8130    19.6110 hc         1 QGW       0.045700
     27 H2          17.6470   176.3240    21.1460 hc         1 QGW       0.045700
     28 H3          17.7460   178.0100    20.6100 hc         1 QGW       0.045700
     29 H4          24.5820   173.3680    15.8220 ha         1 QGW       0.142000
     30 H5          21.4280   169.5340    16.1390 ha         1 QGW       0.147000
     31 H6          23.9320   165.6580    15.0980 hc         1 QGW       0.074367
     32 H7          23.3110   166.6650    13.7200 hc         1 QGW       0.074367
     33 H8          24.9550   166.8180    14.1470 hc         1 QGW       0.074367
     34 H9          25.9490   170.1160    14.6050 hc         1 QGW       0.050700
     35 H10         26.3740   171.6990    15.2030 hc         1 QGW       0.050700
     36 H11         26.6100   171.6740    12.7820 hc         1 QGW       0.041200
     37 H12         25.3140   172.7810    13.2160 hc         1 QGW       0.041200
     38 H13         24.7140   171.3830    11.2230 hc         1 QGW       0.034033
     39 H14         24.8990   169.9050    12.1910 hc         1 QGW       0.034033
     40 H15         23.6010   171.0620    12.5670 hc         1 QGW       0.034033
     41 H16         18.4010   171.6250    18.2730 hc         1 QGW       0.077700
     42 H17         18.7440   172.8240    19.5150 hc         1 QGW       0.077700
     43 H18         17.9950   173.3110    17.9730 hc         1 QGW       0.077700
     44 H19         20.1500   178.5790    19.6280 h4         1 QGW       0.156000
@<TRIPOS>BOND
     1     1     6 ar  
     2     1    12 ar  
     3     1    21 1   
     4     2    18 1   
     5     2    26 1   
     6     2    27 1   
     7     2    28 1   
     8     3     4 ar  
     9     3    12 ar  
    10     3    29 1   
    11     4     5 ar  
    12     4     9 1   
    13     5     6 ar  
    14     5    23 1   
    15     6    30 1   
    16     7     8 1   
    17     7    23 1   
    18     7    24 2   
    19     8    31 1   
    20     8    32 1   
    21     8    33 1   
    22     9    10 1   
    23     9    34 1   
    24     9    35 1   
    25    10    11 1   
    26    10    36 1   
    27    10    37 1   
    28    11    38 1   
    29    11    39 1   
    30    11    40 1   
    31    12    13 1   
    32    13    14 1   
    33    13    22 2   
    34    14    15 2   
    35    14    17 1   
    36    15    16 1   
    37    15    21 1   
    38    16    41 1   
    39    16    42 1   
    40    16    43 1   
    41    17    20 2   
    42    17    25 1   
    43    18    19 2   
    44    18    20 1   
    45    19    25 1   
    46    19    44 1   
@<TRIPOS>SUBSTRUCTURE
     1 QGW         1 TEMP              0 ****  ****    0 ROOT
