@<TRIPOS>MOLECULE
QGW
   44    46     1     0     0
SMALL
bcc


@<TRIPOS>ATOM
      1 C1          21.6440   171.5570    16.6110 ca         1 QGW       0.156100
      2 C10         17.8740   177.0430    20.1390 c3         1 QGW      -0.116400
      3 C11         23.8000   172.3850    16.0000 ca         1 QGW      -0.036000
      4 C12         24.1240   171.1900    15.3860 ca         1 QGW      -0.103300
      5 C13         23.1530   170.1770    15.4100 ca         1 QGW       0.162100
      6 C14         21.9250   170.3360    16.0140 ca         1 QGW      -0.159000
      7 C15         24.0080   167.9990    15.4580 c          1 QGW       0.647100
      8 C16         24.2380   166.8080    14.5860 c3         1 QGW      -0.155100
      9 C17         25.4460   171.0450    14.6830 c3         1 QGW      -0.023100
     10 C18         25.4470   171.6830    13.2900 c3         1 QGW      -0.072400
     11 C19         24.5080   171.0120    12.2990 c3         1 QGW      -0.088100
     12 C2          22.5650   172.5900    16.6180 ca         1 QGW      -0.218600
     13 C3          22.2150   173.8520    17.2620 c          1 QGW       0.599900
     14 C4          20.8790   173.9260    17.8370 cc         1 QGW      -0.364000
     15 C5          20.0530   172.8350    17.7760 cd         1 QGW       0.211900
     16 C6          18.6720   172.7120    18.3120 c3         1 QGW      -0.054900
     17 C7          20.4640   175.1760    18.4650 cc         1 QGW       0.507200
     18 C8          19.1630   176.6400    19.5060 cd         1 QGW       0.361600
     19 C9          20.2730   177.4130    19.3760 cc         1 QGW      -0.248400
     20 N1          19.2930   175.3860    18.9870 nd         1 QGW      -0.686000
     21 O1          20.4340   171.6990    17.1890 os         1 QGW      -0.213200
     22 O2          23.0010   174.7910    17.3090 o          1 QGW      -0.549100
     23 O3          23.4010   168.9900    14.7630 os         1 QGW      -0.367200
     24 O4          24.3020   168.1150    16.6130 o          1 QGW      -0.499000
     25 S1          21.5220   176.5550    18.5800 ss         1 QGW      -0.071300
     26 H1          17.0520   176.9850    19.4230 hc         1 QGW       0.045700
     27 H2          17.6240   176.3850    20.9720 hc         1 QGW       0.045700
     28 H3          17.9230   178.0630    20.5160 hc         1 QGW       0.045700
     29 H4          24.5240   173.1910    16.0070 ha         1 QGW       0.160000
     30 H5          21.1940   169.5380    16.0120 ha         1 QGW       0.165000
     31 H6          24.7350   166.0210    15.1430 hc         1 QGW       0.074367
     32 H7          23.2900   166.4330    14.2000 hc         1 QGW       0.074367
     33 H8          24.8520   167.0830    13.7270 hc         1 QGW       0.074367
     34 H9          25.7450   170.0000    14.5980 hc         1 QGW       0.050700
     35 H10         26.2120   171.5310    15.2910 hc         1 QGW       0.050700
     36 H11         26.4690   171.6480    12.9060 hc         1 QGW       0.041200
     37 H12         25.1910   172.7430    13.3820 hc         1 QGW       0.041200
     38 H13         24.5860   171.4790    11.3170 hc         1 QGW       0.034033
     39 H14         24.7470   169.9540    12.1820 hc         1 QGW       0.034033
     40 H15         23.4650   171.0870    12.6110 hc         1 QGW       0.034033
     41 H16         18.2960   171.7050    18.1470 hc         1 QGW       0.077700
     42 H17         18.6450   172.9370    19.3770 hc         1 QGW       0.077700
     43 H18         18.0060   173.4260    17.8310 hc         1 QGW       0.077700
     44 H19         20.4130   178.4320    19.7030 h4         1 QGW       0.174000
@<TRIPOS>BOND
     1     1     6 ar  
     2     1    12 ar  
     3     1    21 1   
     4     2    18 1   
     5     2    26 1   
     6     2    27 1   
     7     2    28 1   
     8     3     4 ar  
     9     3    12 ar  
    10     3    29 1   
    11     4     5 ar  
    12     4     9 1   
    13     5     6 ar  
    14     5    23 1   
    15     6    30 1   
    16     7     8 1   
    17     7    23 1   
    18     7    24 2   
    19     8    31 1   
    20     8    32 1   
    21     8    33 1   
    22     9    10 1   
    23     9    34 1   
    24     9    35 1   
    25    10    11 1   
    26    10    36 1   
    27    10    37 1   
    28    11    38 1   
    29    11    39 1   
    30    11    40 1   
    31    12    13 1   
    32    13    14 1   
    33    13    22 2   
    34    14    15 2   
    35    14    17 1   
    36    15    16 1   
    37    15    21 1   
    38    16    41 1   
    39    16    42 1   
    40    16    43 1   
    41    17    20 2   
    42    17    25 1   
    43    18    19 2   
    44    18    20 1   
    45    19    25 1   
    46    19    44 1   
@<TRIPOS>SUBSTRUCTURE
     1 QGW         1 TEMP              0 ****  ****    0 ROOT
