@<TRIPOS>MOLECULE
QGX
   36    38     1     0     0
SMALL
abcg2


@<TRIPOS>ATOM
      1 N1         -20.2590     5.9110    26.3730 ns         1 QGX      -0.164000
      2 C4         -16.1680     6.1210    25.8300 ca         1 QGX       0.364900
      3 C5         -16.9330     7.1700    25.2710 ca         1 QGX      -0.093000
      4 C6         -16.3340     8.2360    24.5660 ca         1 QGX      -0.085000
      5 C7         -17.1130     9.2200    24.0230 ca         1 QGX      -0.106000
      6 C8         -18.5160     9.1660    24.1570 ca         1 QGX      -0.092000
      7 C10        -18.3390     7.1270    25.4240 ca         1 QGX      -0.001000
      8 C13        -22.6420     5.2120    31.1190 ca         1 QGX      -0.091000
      9 C15        -22.3190     3.2730    29.7440 ca         1 QGX       0.120000
     10 CL1        -22.1400     1.5690    29.5650 cl         1 QGX      -0.167000
     11 C14        -22.4950     3.8380    31.0020 ca         1 QGX       0.123000
     12 CL         -22.5450     2.8510    32.4120 cl         1 QGX      -0.164000
     13 C12        -22.6150     6.0140    29.9910 ca         1 QGX      -0.085000
     14 C16        -22.2940     4.0810    28.6190 ca         1 QGX      -0.092000
     15 C11        -22.4440     5.4570    28.7290 ca         1 QGX      -0.120300
     16 C          -22.3900     6.3210    27.4770 c3         1 QGX       0.141800
     17 N          -23.1620     7.5400    27.4920 n8         1 QGX      -0.994200
     18 C1         -20.9230     6.6910    27.2530 c          1 QGX       0.610100
     19 O          -20.4020     7.6100    27.8540 o          1 QGX      -0.570100
     20 C2         -18.8690     6.0350    26.1580 ca         1 QGX      -0.083000
     21 C9         -19.1220     8.1460    24.8400 ca         1 QGX      -0.087000
     22 N2         -16.6800     5.1140    26.4820 nb         1 QGX      -0.656000
     23 C3         -18.0180     5.0830    26.6490 ca         1 QGX       0.317900
     24 H1         -20.7390     5.1370    25.9390 hn         1 QGX       0.159000
     25 H2         -15.0870     6.1400    25.7140 h4         1 QGX       0.021100
     26 H3         -15.2560     8.2600    24.4610 ha         1 QGX       0.118000
     27 H4         -16.6590    10.0410    23.4830 ha         1 QGX       0.117000
     28 H5         -19.1210     9.9450    23.7100 ha         1 QGX       0.117000
     29 H6         -22.7790     5.6520    32.0980 ha         1 QGX       0.136000
     30 H7         -22.7420     7.0820    30.1130 ha         1 QGX       0.125000
     31 H8         -22.1650     3.6230    27.6450 ha         1 QGX       0.125000
     32 H9         -22.7390     5.7110    26.6390 h1         1 QGX       0.072700
     33 H10        -24.1220     7.3420    27.7430 hn         1 QGX       0.417500
     34 H11        -22.8000     8.1900    28.1770 hn         1 QGX       0.417500
     35 H13        -20.2000     8.1160    24.9200 ha         1 QGX       0.127000
     36 H14        -18.4160     4.2440    27.2090 h4         1 QGX       0.022100
@<TRIPOS>BOND
     1     1    18 1   
     2     1    20 1   
     3     1    24 1   
     4     2     3 ar  
     5     2    22 ar  
     6     2    25 1   
     7     3     4 ar  
     8     3     7 ar  
     9     4     5 ar  
    10     4    26 1   
    11     5     6 ar  
    12     5    27 1   
    13     6    21 ar  
    14     6    28 1   
    15     7    20 ar  
    16     7    21 ar  
    17     8    11 ar  
    18     8    13 ar  
    19     8    29 1   
    20     9    10 1   
    21     9    11 ar  
    22     9    14 ar  
    23    11    12 1   
    24    13    15 ar  
    25    13    30 1   
    26    14    15 ar  
    27    14    31 1   
    28    15    16 1   
    29    16    17 1   
    30    16    18 1   
    31    16    32 1   
    32    17    33 1   
    33    17    34 1   
    34    18    19 2   
    35    20    23 ar  
    36    21    35 1   
    37    22    23 ar  
    38    23    36 1   
@<TRIPOS>SUBSTRUCTURE
     1 QGX         1 TEMP              0 ****  ****    0 ROOT
