@<TRIPOS>MOLECULE
QGX
   36    38     1     0     0
SMALL
No Charge or Current Charge


@<TRIPOS>ATOM
      1 N1         -20.0550     5.9870    26.6600 ns         1 QGX      -0.164000
      2 C4         -15.9650     6.3130    25.8580 ca         1 QGX       0.364900
      3 C5         -16.8100     7.2720    25.2650 ca         1 QGX      -0.093000
      4 C6         -16.2730     8.2850    24.4470 ca         1 QGX      -0.085000
      5 C7         -17.1250     9.2210    23.8390 ca         1 QGX      -0.106000
      6 C8         -18.5120     9.1410    24.0400 ca         1 QGX      -0.092000
      7 C10        -18.2030     7.1970    25.4920 ca         1 QGX      -0.001000
      8 C13        -22.1890     5.1000    31.0870 ca         1 QGX      -0.091000
      9 C15        -22.9500     3.2490    29.7010 ca         1 QGX       0.120000
     10 Cl1        -23.4720     1.5740    29.5110 cl         1 QGX      -0.167000
     11 C14        -22.6000     3.7630    30.9670 ca         1 QGX       0.123000
     12 Cl         -22.6690     2.7530    32.4120 cl         1 QGX      -0.164000
     13 C12        -22.1250     5.9260    29.9510 ca         1 QGX      -0.085000
     14 C16        -22.8860     4.0760    28.5660 ca         1 QGX      -0.092000
     15 C11        -22.4720     5.4200    28.6800 ca         1 QGX      -0.120300
     16 C          -22.3990     6.3080    27.4390 c3         1 QGX       0.141800
     17 N          -23.5160     7.3100    27.4850 n8         1 QGX      -0.994200
     18 C1         -20.9440     6.8780    27.2460 c          1 QGX       0.610100
     19 O          -20.6100     8.0030    27.6140 o          1 QGX      -0.570100
     20 C2         -18.6830     6.1570    26.3280 ca         1 QGX      -0.083000
     21 C9         -19.0520     8.1330    24.8580 ca         1 QGX      -0.087000
     22 N2         -16.4210     5.3030    26.6330 nb         1 QGX      -0.656000
     23 C3         -17.7530     5.2350    26.8520 ca         1 QGX       0.317900
     24 H1         -20.4310     5.0660    26.4680 hn         1 QGX       0.159000
     25 H2         -14.8880     6.3450    25.6970 h4         1 QGX       0.021100
     26 H3         -15.2000     8.3440    24.2770 ha         1 QGX       0.118000
     27 H4         -16.7110    10.0030    23.2050 ha         1 QGX       0.117000
     28 H5         -19.1720     9.8600    23.5580 ha         1 QGX       0.117000
     29 H6         -21.9200     5.4970    32.0630 ha         1 QGX       0.136000
     30 H7         -21.8050     6.9610    30.0630 ha         1 QGX       0.125000
     31 H8         -23.1600     3.6660    27.5960 ha         1 QGX       0.125000
     32 H9         -22.5820     5.6760    26.5580 h1         1 QGX       0.072700
     33 H10        -24.3940     6.8200    27.6980 hn         1 QGX       0.417500
     34 H11        -23.3810     7.9210    28.3000 hn         1 QGX       0.417500
     35 H13        -20.1300     8.0870    24.9780 ha         1 QGX       0.127000
     36 H14        -18.0880     4.4160    27.4890 h4         1 QGX       0.022100
@<TRIPOS>BOND
     1     1    18 1   
     2     1    20 1   
     3     1    24 1   
     4     2     3 ar  
     5     2    22 ar  
     6     2    25 1   
     7     3     4 ar  
     8     3     7 ar  
     9     4     5 ar  
    10     4    26 1   
    11     5     6 ar  
    12     5    27 1   
    13     6    21 ar  
    14     6    28 1   
    15     7    20 ar  
    16     7    21 ar  
    17     8    11 ar  
    18     8    13 ar  
    19     8    29 1   
    20     9    10 1   
    21     9    11 ar  
    22     9    14 ar  
    23    11    12 1   
    24    13    15 ar  
    25    13    30 1   
    26    14    15 ar  
    27    14    31 1   
    28    15    16 1   
    29    16    17 1   
    30    16    18 1   
    31    16    32 1   
    32    17    33 1   
    33    17    34 1   
    34    18    19 2   
    35    20    23 ar  
    36    21    35 1   
    37    22    23 ar  
    38    23    36 1   
@<TRIPOS>SUBSTRUCTURE
     1 QGX         1 TEMP              0 ****  ****    0 ROOT
