@<TRIPOS>MOLECULE
QGY
   43    46     1     0     0
SMALL
abcg2


@<TRIPOS>ATOM
      1 C14         55.4440    -6.9980    12.4950 c          1 QGY       0.664300
      2 C11         54.9710    -9.3020    11.5720 cc         1 QGY       0.353900
      3 C13         55.7790    -8.1540    11.6860 cd         1 QGY      -0.489000
      4 C02         54.2060   -11.5680     9.2330 ca         1 QGY      -0.086300
      5 C03         53.6910   -12.8170     8.8960 ca         1 QGY      -0.078000
      6 C04         53.9690   -13.9410     9.6600 ca         1 QGY      -0.122000
      7 C05         54.7750   -13.8380    10.7870 ca         1 QGY       0.134100
      8 C07         55.3230   -12.6050    11.1670 ca         1 QGY      -0.141300
      9 C08         56.2030   -12.5170    12.3820 c3         1 QGY      -0.055800
     10 C09         55.0170   -11.4990    10.3700 ca         1 QGY       0.018800
     11 C17         56.9190    -8.3880    10.8690 ca         1 QGY       0.427800
     12 C19         58.8960    -8.2010     9.7650 ca         1 QGY       0.259000
     13 C20         60.0760    -7.5010     9.4210 ca         1 QGY       0.010100
     14 C22         61.0130    -8.0250     8.5640 ca         1 QGY      -0.072000
     15 C23         60.8110    -9.2980     8.0030 ca         1 QGY      -0.117000
     16 C24         59.6830   -10.0230     8.3080 ca         1 QGY      -0.059000
     17 C25         58.7150    -9.4990     9.1820 ca         1 QGY       0.218000
     18 C27         56.7590    -9.6990    10.2730 ca         1 QGY       0.376500
     19 N10         55.5620   -10.2250    10.7280 na         1 QGY      -0.183200
     20 N15         56.3480    -5.9930    12.4820 nt         1 QGY      -0.595000
     21 N18         57.9780    -7.6540    10.6140 nb         1 QGY      -0.656000
     22 N26         57.5980   -10.2540     9.4660 nb         1 QGY      -0.638000
     23 O06         55.0090   -14.9830    11.4940 oh         1 QGY      -0.537100
     24 O16         54.3920    -6.9400    13.1600 o          1 QGY      -0.692100
     25 BR21        60.3830    -5.7660    10.1730 br         1 QGY      -0.091100
     26 H1          53.3950    -9.5820     9.0070 hc         1 QGY       0.050700
     27 H2          54.8230    -9.8880     8.0280 hc         1 QGY       0.050700
     28 H3          53.2730   -10.5990     7.5670 hc         1 QGY       0.050700
     29 H4          53.0600   -12.9100     8.0210 ha         1 QGY       0.125000
     30 H5          53.5620   -14.9080     9.3930 ha         1 QGY       0.136000
     31 H6          55.6650   -12.8340    13.2800 hc         1 QGY       0.053033
     32 H7          57.0780   -13.1660    12.2760 hc         1 QGY       0.053033
     33 H8          56.5610   -11.5060    12.5520 hc         1 QGY       0.053033
     34 H9          61.9030    -7.4620     8.3230 ha         1 QGY       0.132000
     35 H10         61.5560    -9.7010     7.3300 ha         1 QGY       0.123000
     36 H11         59.5120   -11.0040     7.8860 ha         1 QGY       0.134000
     37 H12         53.4410    -8.8080    12.7550 hn         1 QGY       0.530500
     38 H13         53.2980   -10.3930    12.0070 hn         1 QGY       0.530500
     39 H14         56.1660    -5.1560    13.0120 hn         1 QGY       0.329500
     40 H15         57.1870    -6.0650    11.9230 hn         1 QGY       0.329500
     41 H16         55.5530   -14.8030    12.2720 ho         1 QGY       0.470000
     42 N12         53.8080    -9.5380    12.1590 nv         1 QGY      -0.955000
     43 C01         53.9080   -10.3430     8.4140 c3         1 QGY      -0.045800
@<TRIPOS>BOND
     1     1     3 1   
     2     1    20 1   
     3     1    24 2   
     4     2     3 2   
     5     2    19 1   
     6     2    42 1   
     7     3    11 1   
     8     4     5 ar  
     9     4    10 ar  
    10     4    43 1   
    11     5     6 ar  
    12     5    29 1   
    13     6     7 ar  
    14     6    30 1   
    15     7     8 ar  
    16     7    23 1   
    17     8     9 1   
    18     8    10 ar  
    19     9    31 1   
    20     9    32 1   
    21     9    33 1   
    22    10    19 1   
    23    11    18 ar  
    24    11    21 ar  
    25    12    13 ar  
    26    12    17 ar  
    27    12    21 ar  
    28    13    14 ar  
    29    13    25 1   
    30    14    15 ar  
    31    14    34 1   
    32    15    16 ar  
    33    15    35 1   
    34    16    17 ar  
    35    16    36 1   
    36    17    22 ar  
    37    18    19 1   
    38    18    22 ar  
    39    20    39 1   
    40    20    40 1   
    41    23    41 1   
    42    26    43 1   
    43    27    43 1   
    44    28    43 1   
    45    37    42 1   
    46    38    42 1   
@<TRIPOS>SUBSTRUCTURE
     1 QGY         1 TEMP              0 ****  ****    0 ROOT
