@<TRIPOS>MOLECULE
QGY
   43    46     1     0     0
SMALL
No Charge or Current Charge


@<TRIPOS>ATOM
      1 C14         55.4830    -7.0270    12.4380 c          1 QGY       0.664300
      2 C11         54.9170    -9.3060    11.5650 cc         1 QGY       0.353900
      3 C13         55.7540    -8.2220    11.6350 cd         1 QGY      -0.489000
      4 C02         54.1610   -11.5710     9.2500 ca         1 QGY      -0.086300
      5 C03         53.6040   -12.8150     8.9080 ca         1 QGY      -0.078000
      6 C04         53.8760   -13.9480     9.6850 ca         1 QGY      -0.122000
      7 C05         54.7060   -13.8540    10.8100 ca         1 QGY       0.134100
      8 C07         55.2780   -12.6150    11.1800 ca         1 QGY      -0.141300
      9 C08         56.1880   -12.5430    12.4190 c3         1 QGY      -0.055800
     10 C09         54.9990   -11.4660    10.3880 ca         1 QGY       0.018800
     11 C17         56.9110    -8.4810    10.8070 ca         1 QGY       0.427800
     12 C19         58.9180    -8.1770     9.7590 ca         1 QGY       0.259000
     13 C20         60.0750    -7.4210     9.4560 ca         1 QGY       0.010100
     14 C22         61.0660    -7.9280     8.5990 ca         1 QGY      -0.072000
     15 C23         60.9200    -9.1990     8.0270 ca         1 QGY      -0.117000
     16 C24         59.7820    -9.9700     8.3110 ca         1 QGY      -0.059000
     17 C25         58.7720    -9.4900     9.1660 ca         1 QGY       0.218000
     18 C27         56.7570    -9.7450    10.2420 ca         1 QGY       0.376500
     19 N10         55.5490   -10.2250    10.7170 na         1 QGY      -0.183200
     20 N15         56.4070    -6.0630    12.3810 nt         1 QGY      -0.595000
     21 N18         57.9660    -7.6650    10.5970 nb         1 QGY      -0.656000
     22 N26         57.6850   -10.2810     9.4080 nb         1 QGY      -0.638000
     23 O06         54.9480   -14.9860    11.5340 oh         1 QGY      -0.537100
     24 O16         54.4930    -6.8820    13.1330 o          1 QGY      -0.692100
     25 Br21        60.3340    -5.6700    10.2100 br         1 QGY      -0.091100
     26 H1          53.3660    -9.5620     8.9630 hc         1 QGY       0.050700
     27 H2          54.7660    -9.9380     7.9420 hc         1 QGY       0.050700
     28 H3          53.1780   -10.6050     7.5500 hc         1 QGY       0.050700
     29 H4          52.9590   -12.9080     8.0360 ha         1 QGY       0.125000
     30 H5          53.4420   -14.9070     9.4120 ha         1 QGY       0.136000
     31 H6          55.6650   -12.9020    13.3130 hc         1 QGY       0.053033
     32 H7          57.0840   -13.1600    12.2810 hc         1 QGY       0.053033
     33 H8          56.5380   -11.5320    12.6520 hc         1 QGY       0.053033
     34 H9          61.9490    -7.3320     8.3780 ha         1 QGY       0.132000
     35 H10         61.6890    -9.5890     7.3630 ha         1 QGY       0.123000
     36 H11         59.6770   -10.9550     7.8620 ha         1 QGY       0.134000
     37 H12         53.4210    -8.8700    12.8650 hn         1 QGY       0.530500
     38 H13         53.3570   -10.4770    12.2030 hn         1 QGY       0.530500
     39 H14         56.2800    -5.2160    12.9120 hn         1 QGY       0.329500
     40 H15         57.2220    -6.2060    11.8010 hn         1 QGY       0.329500
     41 H16         55.5550   -14.7600    12.2680 ho         1 QGY       0.470000
     42 N12         53.7220    -9.5310    12.1500 nv         1 QGY      -0.955000
     43 C01         53.8510   -10.3540     8.3790 c3         1 QGY      -0.045800
@<TRIPOS>BOND
     1     1     3 1   
     2     1    20 1   
     3     1    24 2   
     4     2     3 2   
     5     2    19 1   
     6     2    42 1   
     7     3    11 1   
     8     4     5 ar  
     9     4    10 ar  
    10     4    43 1   
    11     5     6 ar  
    12     5    29 1   
    13     6     7 ar  
    14     6    30 1   
    15     7     8 ar  
    16     7    23 1   
    17     8     9 1   
    18     8    10 ar  
    19     9    31 1   
    20     9    32 1   
    21     9    33 1   
    22    10    19 1   
    23    11    18 ar  
    24    11    21 ar  
    25    12    13 ar  
    26    12    17 ar  
    27    12    21 ar  
    28    13    14 ar  
    29    13    25 1   
    30    14    15 ar  
    31    14    34 1   
    32    15    16 ar  
    33    15    35 1   
    34    16    17 ar  
    35    16    36 1   
    36    17    22 ar  
    37    18    19 1   
    38    18    22 ar  
    39    20    39 1   
    40    20    40 1   
    41    23    41 1   
    42    26    43 1   
    43    27    43 1   
    44    28    43 1   
    45    37    42 1   
    46    38    42 1   
@<TRIPOS>SUBSTRUCTURE
     1 QGY         1 TEMP              0 ****  ****    0 ROOT
