@<TRIPOS>MOLECULE
QGZ
   43    46     1     0     0
SMALL
No Charge or Current Charge


@<TRIPOS>ATOM
      1 C1           2.7960   -43.9570    -4.6800 ca         1 QGZ       0.235000
      2 C10          6.2280   -44.8780    -6.6680 cx         1 QGZ      -0.123900
      3 C11          4.3290   -41.8330    -5.7250 ca         1 QGZ      -0.098000
      4 C12          4.0760   -41.9060    -4.3450 ca         1 QGZ      -0.100000
      5 C13          3.3090   -42.9630    -3.8280 ca         1 QGZ      -0.138000
      6 C14          1.7050   -46.9270    -6.1030 ca         1 QGZ      -0.267500
      7 C15          0.3890   -46.6500    -6.5240 ca         1 QGZ      -0.013000
      8 C16          0.0250   -46.8510    -7.8670 ca         1 QGZ      -0.128500
      9 C17          0.9710   -47.3280    -8.7910 ca         1 QGZ      -0.043000
     10 C18          2.2830   -47.6080    -8.3710 ca         1 QGZ      -0.128500
     11 C19          2.6520   -47.4110    -7.0290 ca         1 QGZ      -0.013000
     12 C2           3.0380   -43.8680    -6.0630 ca         1 QGZ      -0.096000
     13 C3           3.8130   -42.8160    -6.5900 ca         1 QGZ       0.065800
     14 C4           4.1060   -42.1410    -9.9540 cc         1 QGZ       0.270900
     15 C5           4.8160   -43.3530    -9.8840 cc         1 QGZ      -0.203600
     16 C6           5.4110   -44.0120   -11.0710 c          1 QGZ       0.738600
     17 C7           4.8090   -43.7500    -8.5660 cd         1 QGZ      -0.105300
     18 C8           5.4450   -44.9590    -7.9620 cx         1 QGZ      -0.035400
     19 C9           6.9490   -45.1240    -7.9660 cx         1 QGZ      -0.123900
     20 N1           2.0350   -44.9830    -4.1250 nu         1 QGZ      -0.887100
     21 N2           4.0530   -42.7300    -7.9640 na         1 QGZ       0.175000
     22 N3           3.6230   -41.7200    -8.8020 nd         1 QGZ      -0.571800
     23 O1           1.1390   -47.1750    -3.5010 o          1 QGZ      -0.553500
     24 O2           5.9700   -45.0920   -10.9560 o          1 QGZ      -0.722000
     25 O3           5.3010   -43.4510   -12.1520 o          1 QGZ      -0.722000
     26 O4           3.5940   -46.9180    -4.1890 o          1 QGZ      -0.553500
     27 S1           2.1700   -46.6380    -4.3910 sy         1 QGZ       1.138600
     28 H9           4.9220   -41.0140    -6.1250 ha         1 QGZ       0.136000
     29 H10          4.4730   -41.1430    -3.6780 ha         1 QGZ       0.110000
     30 H11          3.1190   -43.0100    -2.7590 ha         1 QGZ       0.109000
     31 H12         -0.3470   -46.2720    -5.8160 ha         1 QGZ       0.132000
     32 H13         -0.9890   -46.6330    -8.1920 ha         1 QGZ       0.120500
     33 H14          0.6880   -47.4800    -9.8310 ha         1 QGZ       0.124000
     34 H15          3.0140   -47.9770    -9.0860 ha         1 QGZ       0.120500
     35 H16          3.6720   -47.6300    -6.7180 ha         1 QGZ       0.132000
     36 H2           2.6200   -44.6000    -6.7430 ha         1 QGZ       0.144000
     37 H3           3.9170   -41.5450   -10.8380 h4         1 QGZ       0.040100
     38 H4           4.8560   -45.8600    -8.1120 hc         1 QGZ       0.078700
     39 H6           7.3460   -46.1190    -8.1470 hc         1 QGZ       0.068450
     40 H5           7.5470   -44.3130    -8.3740 hc         1 QGZ       0.068450
     41 H1           1.8780   -44.9170    -3.1290 hn         1 QGZ       0.484000
     42 H8           6.1330   -45.7070    -5.9710 hc         1 QGZ       0.068450
     43 H7           6.3670   -43.9060    -6.2010 hc         1 QGZ       0.068450
@<TRIPOS>BOND
     1     1     5 ar  
     2     1    12 ar  
     3     1    20 1   
     4     2    18 1   
     5     2    19 1   
     6     2    42 1   
     7     2    43 1   
     8     3     4 ar  
     9     3    13 ar  
    10     3    28 1   
    11     4     5 ar  
    12     4    29 1   
    13     5    30 1   
    14     6     7 ar  
    15     6    11 ar  
    16     6    27 1   
    17     7     8 ar  
    18     7    31 1   
    19     8     9 ar  
    20     8    32 1   
    21     9    10 ar  
    22     9    33 1   
    23    10    11 ar  
    24    10    34 1   
    25    11    35 1   
    26    12    13 ar  
    27    12    36 1   
    28    13    21 1   
    29    14    15 1   
    30    14    22 2   
    31    14    37 1   
    32    15    16 1   
    33    15    17 2   
    34    16    24 1   
    35    16    25 1   
    36    17    18 1   
    37    17    21 1   
    38    18    19 1   
    39    18    38 1   
    40    19    39 1   
    41    19    40 1   
    42    20    27 1   
    43    20    41 1   
    44    21    22 1   
    45    23    27 2   
    46    26    27 2   
@<TRIPOS>SUBSTRUCTURE
     1 QGZ         1 TEMP              0 ****  ****    0 ROOT
