@<TRIPOS>MOLECULE
QGZ
   43    46     1     0     0
SMALL
bcc


@<TRIPOS>ATOM
      1 C1           2.6030   -43.8000    -4.7710 ca         1 QGZ       0.096600
      2 C10          5.6730   -45.2940    -7.3830 cx         1 QGZ      -0.123900
      3 C11          4.6370   -42.0460    -5.4860 ca         1 QGZ      -0.116000
      4 C12          4.3100   -42.2310    -4.1510 ca         1 QGZ      -0.118000
      5 C13          3.3070   -43.1170    -3.7860 ca         1 QGZ      -0.156000
      6 C14          1.9810   -46.8840    -5.8080 ca         1 QGZ      -0.267500
      7 C15          0.9670   -46.6980    -6.7420 ca         1 QGZ      -0.031000
      8 C16          1.1150   -47.2380    -8.0070 ca         1 QGZ      -0.146500
      9 C17          2.2560   -47.9680    -8.3250 ca         1 QGZ      -0.061000
     10 C18          3.2540   -48.1540    -7.3800 ca         1 QGZ      -0.146500
     11 C19          3.1230   -47.6100    -6.1100 ca         1 QGZ      -0.031000
     12 C2           2.9160   -43.6140    -6.1110 ca         1 QGZ      -0.114000
     13 C3           3.9410   -42.7460    -6.4620 ca         1 QGZ       0.065800
     14 C4           4.5130   -41.4430    -9.5960 cc         1 QGZ       0.336200
     15 C5           4.6680   -42.7960    -9.9580 cc         1 QGZ      -0.268900
     16 C6           4.9300   -43.3140   -11.3460 c          1 QGZ       0.949200
     17 C7           4.4990   -43.4840    -8.7710 cd         1 QGZ      -0.054600
     18 C8           4.6460   -44.9070    -8.4130 cx         1 QGZ      -0.035400
     19 C9           5.8760   -45.6510    -8.8190 cx         1 QGZ      -0.123900
     20 N1           1.5000   -44.6340    -4.4380 nu         1 QGZ      -0.693500
     21 N2           4.2420   -42.5410    -7.8240 na         1 QGZ       0.124300
     22 N3           4.2510   -41.2950    -8.3160 nd         1 QGZ      -0.571800
     23 O1           0.4900   -46.7520    -3.6410 o          1 QGZ      -0.624300
     24 O2           4.7420   -44.5290   -11.5500 o          1 QGZ      -0.827300
     25 O3           5.2980   -42.4580   -12.1760 o          1 QGZ      -0.827300
     26 O4           2.9720   -46.5020    -3.4160 o          1 QGZ      -0.624300
     27 S1           1.7520   -46.2600    -4.1690 sy         1 QGZ       1.280200
     28 H9           5.4260   -41.3630    -5.7690 ha         1 QGZ       0.154000
     29 H10          4.8510   -41.6880    -3.3880 ha         1 QGZ       0.128000
     30 H11          3.0570   -43.2620    -2.7430 ha         1 QGZ       0.127000
     31 H12          0.0820   -46.1260    -6.4940 ha         1 QGZ       0.150000
     32 H13          0.3390   -47.0920    -8.7460 ha         1 QGZ       0.138500
     33 H14          2.3660   -48.3890    -9.3160 ha         1 QGZ       0.142000
     34 H15          4.1430   -48.7190    -7.6300 ha         1 QGZ       0.138500
     35 H16          3.9030   -47.7510    -5.3750 ha         1 QGZ       0.150000
     36 H2           2.3360   -44.1150    -6.8740 ha         1 QGZ       0.162000
     37 H3           4.5720   -40.5780   -10.2400 h4         1 QGZ       0.040100
     38 H4           3.7270   -45.4860    -8.4080 hc         1 QGZ       0.078700
     39 H6           5.7560   -46.6840    -9.1180 hc         1 QGZ       0.068450
     40 H5           6.6290   -45.1110    -9.3770 hc         1 QGZ       0.068450
     41 H1           0.8970   -44.2570    -3.7110 hn         1 QGZ       0.428800
     42 H8           5.4150   -46.0730    -6.6780 hc         1 QGZ       0.068450
     43 H7           6.2890   -44.5070    -6.9660 hc         1 QGZ       0.068450
@<TRIPOS>BOND
     1     1     5 ar  
     2     1    12 ar  
     3     1    20 1   
     4     2    18 1   
     5     2    19 1   
     6     2    42 1   
     7     2    43 1   
     8     3     4 ar  
     9     3    13 ar  
    10     3    28 1   
    11     4     5 ar  
    12     4    29 1   
    13     5    30 1   
    14     6     7 ar  
    15     6    11 ar  
    16     6    27 1   
    17     7     8 ar  
    18     7    31 1   
    19     8     9 ar  
    20     8    32 1   
    21     9    10 ar  
    22     9    33 1   
    23    10    11 ar  
    24    10    34 1   
    25    11    35 1   
    26    12    13 ar  
    27    12    36 1   
    28    13    21 1   
    29    14    15 1   
    30    14    22 2   
    31    14    37 1   
    32    15    16 1   
    33    15    17 2   
    34    16    24 1   
    35    16    25 1   
    36    17    18 1   
    37    17    21 1   
    38    18    19 1   
    39    18    38 1   
    40    19    39 1   
    41    19    40 1   
    42    20    27 1   
    43    20    41 1   
    44    21    22 1   
    45    23    27 2   
    46    26    27 2   
@<TRIPOS>SUBSTRUCTURE
     1 QGZ         1 TEMP              0 ****  ****    0 ROOT
