@<TRIPOS>MOLECULE
QH0
   64    65     1     0     0
SMALL
No Charge or Current Charge


@<TRIPOS>ATOM
      1 C13         17.8020     9.7430    25.8020 c5         1 QH0      -0.152700
      2 C15         17.9990     9.9050    28.2030 c5         1 QH0       0.101000
      3 C17         16.8440     8.7450    26.4750 c          1 QH0       0.555000
      4 C20         18.7160    12.2220    21.2960 c3         1 QH0      -0.031400
      5 C26         22.0030    13.6350    29.9360 c3         1 QH0       0.225900
      6 C28         21.8470    11.0930    29.9220 ca         1 QH0      -0.101000
      7 O01         19.7590    14.3230    28.4480 o          1 QH0      -0.535000
      8 N03         20.9760    13.9390    26.5390 ns         1 QH0      -0.456900
      9 C04         19.8920    14.0530    25.5430 c3         1 QH0       0.035700
     10 C05         20.0770    15.3070    24.6470 c3         1 QH0      -0.073400
     11 C06         20.0290    16.6740    25.3870 c3         1 QH0      -0.059700
     12 C07         20.4120    17.8290    24.4340 c3         1 QH0      -0.091600
     13 C08         18.6570    16.9470    26.0490 c3         1 QH0      -0.091600
     14 N10         18.5820    12.3870    24.2810 ns         1 QH0      -0.505900
     15 C11         18.2540    11.1330    23.6000 c3         1 QH0       0.106700
     16 C12         17.2640    10.2870    24.4410 c3         1 QH0      -0.073400
     17 C14         18.0450    10.7910    26.9300 c5         1 QH0      -0.086400
     18 N16         16.9700     8.9430    27.8220 ns         1 QH0      -0.511900
     19 O18         15.9680     8.0530    25.9820 o          1 QH0      -0.567000
     20 C19         17.7180    11.4290    22.1810 c3         1 QH0      -0.100400
     21 N21         18.1700    12.4620    19.8900 no         1 QH0       0.562000
     22 O22         18.3980    11.6020    19.0310 o          1 QH0      -0.395000
     23 O23         17.5050    13.4870    19.7000 o          1 QH0      -0.395000
     24 O24         20.8400    12.0950    24.4240 o          1 QH0      -0.612100
     25 O25         21.9920    13.7610    28.5010 os         1 QH0      -0.453100
     26 C27         21.3120    12.3310    30.3320 ca         1 QH0      -0.117300
     27 C29         21.2170     9.8900    30.2860 ca         1 QH0      -0.111000
     28 C30         20.0470     9.9160    31.0630 ca         1 QH0      -0.109000
     29 C31         19.5050    11.1460    31.4730 ca         1 QH0      -0.111000
     30 C32         20.1350    12.3500    31.1090 ca         1 QH0      -0.101000
     31 H1          18.7400     9.2050    25.6250 hc         1 QH0       0.080700
     32 H2          18.9630     9.4090    28.3810 h1         1 QH0       0.053700
     33 H3          17.7350    10.4850    29.0980 h1         1 QH0       0.053700
     34 H4          19.6580    11.6750    21.1720 h1         1 QH0       0.096700
     35 H5          18.9240    13.2130    21.7150 h1         1 QH0       0.096700
     36 H6          23.0380    13.6070    30.3010 h1         1 QH0       0.073700
     37 H7          21.5130    14.4950    30.4130 h1         1 QH0       0.073700
     38 H9          21.8980    13.6580    26.2290 hn         1 QH0       0.330500
     39 H10         18.9300    14.1190    26.0650 h1         1 QH0       0.091700
     40 H11         19.3030    15.3010    23.8680 hc         1 QH0       0.051700
     41 H12         21.0370    15.2170    24.1250 hc         1 QH0       0.051700
     42 H13         20.7830    16.6570    26.1840 hc         1 QH0       0.060700
     43 H14         20.4250    18.7860    24.9690 hc         1 QH0       0.036700
     44 H15         21.4100    17.6670    24.0080 hc         1 QH0       0.036700
     45 H16         19.6950    17.9080    23.6070 hc         1 QH0       0.036700
     46 H17         18.4280    16.2000    26.8170 hc         1 QH0       0.036700
     47 H18         18.6520    17.9300    26.5360 hc         1 QH0       0.036700
     48 H19         17.8530    16.9320    25.3030 hc         1 QH0       0.036700
     49 H20         17.8180    12.9980    24.5470 hn         1 QH0       0.318500
     50 H21         19.1720    10.5380    23.4850 h1         1 QH0       0.087700
     51 H22         16.3470    10.8670    24.6100 hc         1 QH0       0.065700
     52 H23         16.9620     9.4290    23.8260 hc         1 QH0       0.065700
     53 H24         19.0020    11.3160    26.8430 hc         1 QH0       0.061200
     54 H25         17.2500    11.5460    26.9540 hc         1 QH0       0.061200
     55 H26         16.3660     8.4300    28.4540 hn         1 QH0       0.328500
     56 H27         16.7780    11.9890    22.2560 hc         1 QH0       0.076700
     57 H28         17.4820    10.4800    21.6830 hc         1 QH0       0.076700
     58 H29         21.6360     8.9380    29.9660 ha         1 QH0       0.116500
     59 H30         19.5590     8.9860    31.3450 ha         1 QH0       0.117000
     60 H31         18.5970    11.1680    32.0720 ha         1 QH0       0.116500
     61 H32         19.7060    13.2970    31.4290 ha         1 QH0       0.120000
     62 C09         19.8460    12.7590    24.6910 c          1 QH0       0.562100
     63 C02         20.8070    14.0400    27.8910 c          1 QH0       0.625100
     64 H8          22.7530    11.0640    29.3200 ha         1 QH0       0.120000
@<TRIPOS>BOND
     1     1     3 1   
     2     1    16 1   
     3     1    17 1   
     4     1    31 1   
     5     2    17 1   
     6     2    18 1   
     7     2    32 1   
     8     2    33 1   
     9     3    18 1   
    10     3    19 2   
    11     4    20 1   
    12     4    21 1   
    13     4    34 1   
    14     4    35 1   
    15     5    25 1   
    16     5    26 1   
    17     5    36 1   
    18     5    37 1   
    19     6    26 ar  
    20     6    27 ar  
    21     6    64 1   
    22     7    63 2   
    23     8     9 1   
    24     8    38 1   
    25     8    63 1   
    26     9    10 1   
    27     9    39 1   
    28     9    62 1   
    29    10    11 1   
    30    10    40 1   
    31    10    41 1   
    32    11    12 1   
    33    11    13 1   
    34    11    42 1   
    35    12    43 1   
    36    12    44 1   
    37    12    45 1   
    38    13    46 1   
    39    13    47 1   
    40    13    48 1   
    41    14    15 1   
    42    14    49 1   
    43    14    62 1   
    44    15    16 1   
    45    15    20 1   
    46    15    50 1   
    47    16    51 1   
    48    16    52 1   
    49    17    53 1   
    50    17    54 1   
    51    18    55 1   
    52    20    56 1   
    53    20    57 1   
    54    21    22 1   
    55    21    23 1   
    56    24    62 2   
    57    25    63 1   
    58    26    30 ar  
    59    27    28 ar  
    60    27    58 1   
    61    28    29 ar  
    62    28    59 1   
    63    29    30 ar  
    64    29    60 1   
    65    30    61 1   
@<TRIPOS>SUBSTRUCTURE
     1 QH0         1 TEMP              0 ****  ****    0 ROOT
