@<TRIPOS>MOLECULE
QH0
   64    65     1     0     0
SMALL
abcg2


@<TRIPOS>ATOM
      1 C13         17.7980    10.1850    26.3900 c5         1 QH0      -0.152700
      2 C15         17.1970    10.6320    28.7070 c5         1 QH0       0.101000
      3 C17         17.0590     8.9970    27.0070 c          1 QH0       0.555000
      4 C20         19.0810    12.0550    21.8570 c3         1 QH0      -0.031400
      5 C26         21.2990    13.2750    30.0720 c3         1 QH0       0.225900
      6 C28         21.1600    11.1240    28.7200 ca         1 QH0      -0.101000
      7 O01         19.2870    14.0460    28.4670 o          1 QH0      -0.535000
      8 N03         20.7800    14.5520    26.8080 ns         1 QH0      -0.456900
      9 C04         19.8370    14.4290    25.7110 c3         1 QH0       0.035700
     10 C05         20.1990    15.3710    24.5590 c3         1 QH0      -0.073400
     11 C06         20.1750    16.8630    24.9110 c3         1 QH0      -0.059700
     12 C07         20.6150    17.6810    23.6960 c3         1 QH0      -0.091600
     13 C08         18.8000    17.3190    25.4020 c3         1 QH0      -0.091600
     14 N10         18.6490    12.5500    24.7220 ns         1 QH0      -0.505900
     15 C11         18.4340    11.2310    24.1360 c3         1 QH0       0.106700
     16 C12         17.4110    10.4200    24.9330 c3         1 QH0      -0.073400
     17 C14         17.5190    11.3300    27.3770 c5         1 QH0      -0.086400
     18 N16         16.7360     9.3180    28.2720 ns         1 QH0      -0.511900
     19 O18         16.8210     7.9250    26.4530 o          1 QH0      -0.567000
     20 C19         18.0110    11.3590    22.6670 c3         1 QH0      -0.100400
     21 N21         18.7440    12.1850    20.3930 no         1 QH0       0.562000
     22 O22         19.6130    12.6530    19.6730 o          1 QH0      -0.395000
     23 O23         17.6450    11.8360    20.0000 o          1 QH0      -0.395000
     24 O24         20.8560    12.3030    25.2020 o          1 QH0      -0.612100
     25 O25         21.5280    13.9250    28.8120 os         1 QH0      -0.453100
     26 C27         20.9900    11.8030    29.9240 ca         1 QH0      -0.117300
     27 C29         20.8840     9.7620    28.6350 ca         1 QH0      -0.111000
     28 C30         20.4440     9.0630    29.7520 ca         1 QH0      -0.109000
     29 C31         20.2710     9.7380    30.9580 ca         1 QH0      -0.111000
     30 C32         20.5380    11.0990    31.0400 ca         1 QH0      -0.101000
     31 H1          18.8590     9.9100    26.4310 hc         1 QH0       0.080700
     32 H2          18.0830    10.5380    29.3380 h1         1 QH0       0.053700
     33 H3          16.4210    11.1460    29.2730 h1         1 QH0       0.053700
     34 H4          20.0340    11.5270    21.8740 h1         1 QH0       0.096700
     35 H5          19.2560    13.0800    22.1830 h1         1 QH0       0.096700
     36 H6          22.2300    13.4160    30.6210 h1         1 QH0       0.073700
     37 H7          20.4990    13.7810    30.6100 h1         1 QH0       0.073700
     38 H9          21.7530    14.4240    26.5700 hn         1 QH0       0.330500
     39 H10         18.8500    14.6740    26.0980 h1         1 QH0       0.091700
     40 H11         19.4970    15.1850    23.7410 hc         1 QH0       0.051700
     41 H12         21.1930    15.1000    24.1910 hc         1 QH0       0.051700
     42 H13         20.8980    17.0310    25.7150 hc         1 QH0       0.060700
     43 H14         20.6510    18.7460    23.9350 hc         1 QH0       0.036700
     44 H15         21.6060    17.3760    23.3510 hc         1 QH0       0.036700
     45 H16         19.9140    17.5480    22.8670 hc         1 QH0       0.036700
     46 H17         18.5090    16.8180    26.3270 hc         1 QH0       0.036700
     47 H18         18.7990    18.3930    25.5940 hc         1 QH0       0.036700
     48 H19         18.0330    17.1100    24.6500 hc         1 QH0       0.036700
     49 H20         17.8500    13.1620    24.7970 hn         1 QH0       0.318500
     50 H21         19.3980    10.7250    24.1900 h1         1 QH0       0.087700
     51 H22         16.4360    10.9160    24.8880 hc         1 QH0       0.065700
     52 H23         17.3010     9.4520    24.4410 hc         1 QH0       0.065700
     53 H24         18.3480    12.0210    27.4850 hc         1 QH0       0.061200
     54 H25         16.6500    11.8960    27.0350 hc         1 QH0       0.061200
     55 H26         16.3480     8.6340    28.9040 hn         1 QH0       0.328500
     56 H27         17.0720    11.9120    22.6070 hc         1 QH0       0.076700
     57 H28         17.8320    10.3600    22.2680 hc         1 QH0       0.076700
     58 H29         21.0120     9.2500    27.6900 ha         1 QH0       0.116500
     59 H30         20.2270     8.0050    29.6830 ha         1 QH0       0.117000
     60 H31         19.9180     9.2060    31.8330 ha         1 QH0       0.116500
     61 H32         20.3910    11.6210    31.9790 ha         1 QH0       0.120000
     62 C09         19.8290    12.9810    25.1960 c          1 QH0       0.562100
     63 C02         20.4280    14.1610    28.0560 c          1 QH0       0.625100
     64 H8          21.4980    11.6520    27.8380 ha         1 QH0       0.120000
@<TRIPOS>BOND
     1     1     3 1   
     2     1    16 1   
     3     1    17 1   
     4     1    31 1   
     5     2    17 1   
     6     2    18 1   
     7     2    32 1   
     8     2    33 1   
     9     3    18 1   
    10     3    19 2   
    11     4    20 1   
    12     4    21 1   
    13     4    34 1   
    14     4    35 1   
    15     5    25 1   
    16     5    26 1   
    17     5    36 1   
    18     5    37 1   
    19     6    26 ar  
    20     6    27 ar  
    21     6    64 1   
    22     7    63 2   
    23     8     9 1   
    24     8    38 1   
    25     8    63 1   
    26     9    10 1   
    27     9    39 1   
    28     9    62 1   
    29    10    11 1   
    30    10    40 1   
    31    10    41 1   
    32    11    12 1   
    33    11    13 1   
    34    11    42 1   
    35    12    43 1   
    36    12    44 1   
    37    12    45 1   
    38    13    46 1   
    39    13    47 1   
    40    13    48 1   
    41    14    15 1   
    42    14    49 1   
    43    14    62 1   
    44    15    16 1   
    45    15    20 1   
    46    15    50 1   
    47    16    51 1   
    48    16    52 1   
    49    17    53 1   
    50    17    54 1   
    51    18    55 1   
    52    20    56 1   
    53    20    57 1   
    54    21    22 1   
    55    21    23 1   
    56    24    62 2   
    57    25    63 1   
    58    26    30 ar  
    59    27    28 ar  
    60    27    58 1   
    61    28    29 ar  
    62    28    59 1   
    63    29    30 ar  
    64    29    60 1   
    65    30    61 1   
@<TRIPOS>SUBSTRUCTURE
     1 QH0         1 TEMP              0 ****  ****    0 ROOT
