@<TRIPOS>MOLECULE
QH1
   72    76     1     0     0
SMALL
abcg2


@<TRIPOS>ATOM
      1 C11         -0.2460     2.4730    20.7770 ca         1 QH1      -0.087200
      2 C13          1.8100     2.6060    19.4370 cc         1 QH1      -0.106100
      3 C14          3.1100     3.0170    19.6000 cd         1 QH1      -0.209000
      4 C15          3.2020     3.5120    20.9460 ca         1 QH1       0.420800
      5 C01         -2.2830     3.2910    17.6370 c3         1 QH1      -0.099100
      6 C03         -3.7860     5.1890    18.5310 c3         1 QH1      -0.317400
      7 C08         -2.5650     3.1440    21.0700 ca         1 QH1       0.203000
      8 C09         -1.2240     3.4510    20.8730 ca         1 QH1       0.173000
      9 C16          1.9370     3.3730    21.5260 ca         1 QH1      -0.141200
     10 C17          1.7420     3.7710    22.8410 ca         1 QH1      -0.032000
     11 C18          2.8250     4.3020    23.5020 ca         1 QH1      -0.208000
     12 C19          4.0830     4.4290    22.8410 ca         1 QH1       0.627900
     13 C22          5.0120     5.4300    24.8550 c3         1 QH1       0.213100
     14 C23          6.4090     5.2120    22.8020 c6         1 QH1       0.236500
     15 C24          6.7070     6.7050    22.6490 c6         1 QH1      -0.115400
     16 C25          8.0200     6.9040    21.8970 c6         1 QH1       0.095000
     17 C27          8.8670     4.7690    22.6520 c6         1 QH1       0.095000
     18 C28          7.5910     4.4810    23.4380 c6         1 QH1      -0.115400
     19 C30         10.1590     8.3000    23.2440 c3         1 QH1      -0.177100
     20 C32          4.1590     2.9640    18.5940 ca         1 QH1      -0.094800
     21 C33          5.5160     2.9240    18.9150 ca         1 QH1       0.106400
     22 C35          6.0770     2.8340    16.7290 ca         1 QH1       0.105900
     23 C37          3.8820     2.9460    17.2260 ca         1 QH1       0.106400
     24 C38         -0.6470     1.1470    20.8580 ca         1 QH1       0.208000
     25 C40         -1.9670     0.7980    21.0500 ca         1 QH1      -0.153000
     26 C41         -2.9140     1.8010    21.1770 ca         1 QH1      -0.027000
     27 F10         -0.8520     4.7230    20.7600 f          1 QH1      -0.157000
     28 F39          0.2850     0.2020    20.7490 f          1 QH1      -0.148000
     29 N07         -3.5400     4.1530    21.1620 nu         1 QH1      -0.876100
     30 N12          1.0980     2.8180    20.5820 na         1 QH1       0.020500
     31 N20          4.2500     4.0320    21.5840 nb         1 QH1      -0.738000
     32 N26          9.0990     6.2000    22.5650 n          1 QH1      -0.409800
     33 N34          6.4680     2.8630    17.9920 nb         1 QH1      -0.175000
     34 N36          4.8250     2.8730    16.3000 nb         1 QH1      -0.175000
     35 O31         10.8460     6.1440    23.9920 o          1 QH1      -0.604100
     36 S04         -4.6410     4.4140    19.9270 s6         1 QH1       1.156100
     37 H1           1.3300     2.1640    18.5770 h4         1 QH1       0.222000
     38 H2          -2.0280     2.7640    16.7180 hc         1 QH1       0.039033
     39 H3          -1.3870     3.8160    17.9720 hc         1 QH1       0.039033
     40 H4          -2.5350     2.5350    18.3810 hc         1 QH1       0.039033
     41 H5          -3.1480     4.9190    16.5550 hc         1 QH1       0.057700
     42 H6          -4.3150     3.7260    17.0490 hc         1 QH1       0.057700
     43 H7          -2.9160     5.7120    18.9350 h1         1 QH1       0.098700
     44 H8          -4.4930     5.9470    18.1900 h1         1 QH1       0.098700
     45 H9           0.7870     3.6750    23.3420 ha         1 QH1       0.122000
     46 H10          2.7000     4.6240    24.5250 ha         1 QH1       0.125000
     47 H11          5.9700     5.7870    25.2230 h1         1 QH1       0.037700
     48 H12          4.3020     6.2580    24.9420 h1         1 QH1       0.037700
     49 H13          4.6880     4.6340    25.5290 h1         1 QH1       0.037700
     50 H14          6.2830     4.8050    21.7990 h1         1 QH1       0.093700
     51 H15          5.8960     7.1900    22.1010 hc         1 QH1       0.053950
     52 H16          8.2480     7.9610    21.7970 h1         1 QH1       0.060950
     53 H17          9.7260     4.2860    23.1090 h1         1 QH1       0.060950
     54 H18          8.7700     4.3770    21.6350 h1         1 QH1       0.060950
     55 H19          7.4010     3.4060    23.4440 hc         1 QH1       0.053950
     56 H20          7.7380     4.7920    24.4760 hc         1 QH1       0.053950
     57 H21         11.0070     8.6250    23.8410 hc         1 QH1       0.059367
     58 H22         10.2990     8.6570    22.2240 hc         1 QH1       0.059367
     59 H23          9.2610     8.7780    23.6370 hc         1 QH1       0.059367
     60 H24          5.8390     2.9420    19.9490 h4         1 QH1       0.030100
     61 H25          6.8540     2.7750    15.9740 h5         1 QH1       0.048100
     62 H26          2.8580     3.0020    16.8700 h4         1 QH1       0.030100
     63 H27         -2.2500    -0.2430    21.1270 ha         1 QH1       0.153000
     64 H28         -3.9450     1.5380    21.3620 ha         1 QH1       0.158000
     65 H29         -3.2530     5.0180    21.6090 hn         1 QH1       0.501000
     66 H30          6.7820     7.1940    23.6250 hc         1 QH1       0.053950
     67 H31          7.9270     6.5060    20.8810 h1         1 QH1       0.060950
     68 N21          5.1570     4.9610    23.4970 nh         1 QH1      -0.793300
     69 C29         10.0640     6.7920    23.3070 c          1 QH1       0.604100
     70 C02         -3.4240     4.2600    17.3820 c3         1 QH1      -0.041400
     71 O05         -5.5660     5.3930    20.4720 o          1 QH1      -0.517000
     72 O06         -5.1250     3.1070    19.5170 o          1 QH1      -0.517000
@<TRIPOS>BOND
     1     1     8 ar  
     2     1    24 ar  
     3     1    30 1   
     4     2     3 2   
     5     2    30 1   
     6     2    37 1   
     7     3     4 1   
     8     3    20 1   
     9     4     9 ar  
    10     4    31 ar  
    11     5    38 1   
    12     5    39 1   
    13     5    40 1   
    14     5    70 1   
    15     6    36 1   
    16     6    43 1   
    17     6    44 1   
    18     6    70 1   
    19     7     8 ar  
    20     7    26 ar  
    21     7    29 1   
    22     8    27 1   
    23     9    10 ar  
    24     9    30 1   
    25    10    11 ar  
    26    10    45 1   
    27    11    12 ar  
    28    11    46 1   
    29    12    31 ar  
    30    12    68 1   
    31    13    47 1   
    32    13    48 1   
    33    13    49 1   
    34    13    68 1   
    35    14    15 1   
    36    14    18 1   
    37    14    50 1   
    38    14    68 1   
    39    15    16 1   
    40    15    51 1   
    41    15    66 1   
    42    16    32 1   
    43    16    52 1   
    44    16    67 1   
    45    17    18 1   
    46    17    32 1   
    47    17    53 1   
    48    17    54 1   
    49    18    55 1   
    50    18    56 1   
    51    19    57 1   
    52    19    58 1   
    53    19    59 1   
    54    19    69 1   
    55    20    21 ar  
    56    20    23 ar  
    57    21    33 ar  
    58    21    60 1   
    59    22    33 ar  
    60    22    34 ar  
    61    22    61 1   
    62    23    34 ar  
    63    23    62 1   
    64    24    25 ar  
    65    24    28 1   
    66    25    26 ar  
    67    25    63 1   
    68    26    64 1   
    69    29    36 1   
    70    29    65 1   
    71    32    69 1   
    72    35    69 2   
    73    36    71 2   
    74    36    72 2   
    75    41    70 1   
    76    42    70 1   
@<TRIPOS>SUBSTRUCTURE
     1 QH1         1 TEMP              0 ****  ****    0 ROOT
