@<TRIPOS>MOLECULE
QH1
   72    76     1     0     0
SMALL
No Charge or Current Charge


@<TRIPOS>ATOM
      1 C11         -0.2500     2.6060    20.7790 ca         1 QH1      -0.087200
      2 C13          1.7920     2.5670    19.4270 cc         1 QH1      -0.106100
      3 C14          3.1010     2.9970    19.6690 cd         1 QH1      -0.209000
      4 C15          3.1760     3.5890    21.0080 ca         1 QH1       0.420800
      5 C01         -2.6990     2.6970    17.6300 c3         1 QH1      -0.099100
      6 C03         -3.8090     4.9730    18.2760 c3         1 QH1      -0.317400
      7 C08         -2.5930     3.3300    20.9570 ca         1 QH1       0.203000
      8 C09         -1.2190     3.6320    20.7950 ca         1 QH1       0.173000
      9 C16          1.9150     3.5060    21.5320 ca         1 QH1      -0.141200
     10 C17          1.6370     3.9790    22.8180 ca         1 QH1      -0.032000
     11 C18          2.7320     4.5320    23.5100 ca         1 QH1      -0.208000
     12 C19          4.0100     4.5750    22.8930 ca         1 QH1       0.627900
     13 C22          5.2280     5.0750    25.0300 c3         1 QH1       0.213100
     14 C23          6.3020     5.6410    22.7720 c6         1 QH1       0.236500
     15 C24          6.8160     6.9990    23.3250 c6         1 QH1      -0.115400
     16 C25          8.0120     7.5000    22.4830 c6         1 QH1       0.095000
     17 C27          8.6430     5.1720    21.8960 c6         1 QH1       0.095000
     18 C28          7.4570     4.6090    22.7120 c6         1 QH1      -0.115400
     19 C30         10.7500     7.9960    23.6440 c3         1 QH1      -0.177100
     20 C32          4.2190     2.8420    18.6990 ca         1 QH1      -0.094800
     21 C33          5.5420     3.2970    18.9290 ca         1 QH1       0.106400
     22 C35          6.1950     2.5190    16.8700 ca         1 QH1       0.105900
     23 C37          3.9990     2.2110    17.4520 ca         1 QH1       0.106400
     24 C38         -0.6620     1.2700    20.9470 ca         1 QH1       0.208000
     25 C40         -2.0180     0.9620    21.1320 ca         1 QH1      -0.153000
     26 C41         -2.9800     1.9890    21.1400 ca         1 QH1      -0.027000
     27 F10         -0.8350     4.9220    20.6260 f          1 QH1      -0.157000
     28 F39          0.2440     0.2660    20.9440 f          1 QH1      -0.148000
     29 N07         -3.5590     4.3450    20.9620 nu         1 QH1      -0.876100
     30 N12          1.0970     2.9130    20.5950 na         1 QH1       0.020500
     31 N20          4.2350     4.1060    21.6470 nb         1 QH1      -0.738000
     32 N26          9.0930     6.4760    22.4530 n          1 QH1      -0.409800
     33 N34          6.5270     3.1370    18.0200 nb         1 QH1      -0.175000
     34 N36          4.9780     2.0470    16.5390 nb         1 QH1      -0.175000
     35 O31         11.1410     5.6940    23.1520 o          1 QH1      -0.604100
     36 S04         -4.7190     4.5940    19.7940 s6         1 QH1       1.156100
     37 H1           1.3210     2.0790    18.5820 h4         1 QH1       0.222000
     38 H2          -2.5280     2.0320    16.7740 hc         1 QH1       0.039033
     39 H3          -1.7300     3.1020    17.9430 hc         1 QH1       0.039033
     40 H4          -3.1130     2.0890    18.4400 hc         1 QH1       0.039033
     41 H5          -3.3050     4.2660    16.2990 hc         1 QH1       0.057700
     42 H6          -4.6560     3.4010    17.0080 hc         1 QH1       0.057700
     43 H7          -2.8300     5.3650    18.5720 h1         1 QH1       0.098700
     44 H8          -4.3790     5.7880    17.8180 h1         1 QH1       0.098700
     45 H9           0.6430     3.9270    23.2550 ha         1 QH1       0.122000
     46 H10          2.5900     4.9310    24.5080 ha         1 QH1       0.125000
     47 H11          6.2710     5.0060    25.3650 h1         1 QH1       0.037700
     48 H12          4.7790     5.9780    25.4640 h1         1 QH1       0.037700
     49 H13          4.7030     4.1960    25.4270 h1         1 QH1       0.037700
     50 H14          5.9920     5.8470    21.7350 h1         1 QH1       0.093700
     51 H15          6.0090     7.7430    23.3030 hc         1 QH1       0.053950
     52 H16          8.3600     8.4600    22.8850 h1         1 QH1       0.060950
     53 H17          9.4620     4.4390    21.8870 h1         1 QH1       0.060950
     54 H18          8.3320     5.3180    20.8510 h1         1 QH1       0.060950
     55 H19          7.1050     3.6750    22.2540 hc         1 QH1       0.053950
     56 H20          7.8000     4.3570    23.7240 hc         1 QH1       0.053950
     57 H21         11.7700     8.0050    24.0440 hc         1 QH1       0.059367
     58 H22         10.6160     8.7610    22.8710 hc         1 QH1       0.059367
     59 H23         10.0240     8.2900    24.4110 hc         1 QH1       0.059367
     60 H24          5.8460     3.8020    19.8390 h4         1 QH1       0.030100
     61 H25          6.9880     2.3890    16.1370 h5         1 QH1       0.048100
     62 H26          3.0230     1.8240    17.1680 h4         1 QH1       0.030100
     63 H27         -2.3230    -0.0720    21.2700 ha         1 QH1       0.153000
     64 H28         -4.0280     1.7440    21.2890 ha         1 QH1       0.158000
     65 H29         -3.1970     5.2810    21.1040 hn         1 QH1       0.501000
     66 H30          7.1370     6.9040    24.3700 hc         1 QH1       0.053950
     67 H31          7.6770     7.6930    21.4530 h1         1 QH1       0.060950
     68 N21          5.1380     5.1120    23.5510 nh         1 QH1      -0.793300
     69 C29         10.3550     6.6300    23.0800 c          1 QH1       0.604100
     70 C02         -3.6700     3.8260    17.2360 c3         1 QH1      -0.041400
     71 O05         -5.4190     5.8010    20.2310 o          1 QH1      -0.517000
     72 O06         -5.4400     3.3280    19.6490 o          1 QH1      -0.517000
@<TRIPOS>BOND
     1     1     8 ar  
     2     1    24 ar  
     3     1    30 1   
     4     2     3 2   
     5     2    30 1   
     6     2    37 1   
     7     3     4 1   
     8     3    20 1   
     9     4     9 ar  
    10     4    31 ar  
    11     5    38 1   
    12     5    39 1   
    13     5    40 1   
    14     5    70 1   
    15     6    36 1   
    16     6    43 1   
    17     6    44 1   
    18     6    70 1   
    19     7     8 ar  
    20     7    26 ar  
    21     7    29 1   
    22     8    27 1   
    23     9    10 ar  
    24     9    30 1   
    25    10    11 ar  
    26    10    45 1   
    27    11    12 ar  
    28    11    46 1   
    29    12    31 ar  
    30    12    68 1   
    31    13    47 1   
    32    13    48 1   
    33    13    49 1   
    34    13    68 1   
    35    14    15 1   
    36    14    18 1   
    37    14    50 1   
    38    14    68 1   
    39    15    16 1   
    40    15    51 1   
    41    15    66 1   
    42    16    32 1   
    43    16    52 1   
    44    16    67 1   
    45    17    18 1   
    46    17    32 1   
    47    17    53 1   
    48    17    54 1   
    49    18    55 1   
    50    18    56 1   
    51    19    57 1   
    52    19    58 1   
    53    19    59 1   
    54    19    69 1   
    55    20    21 ar  
    56    20    23 ar  
    57    21    33 ar  
    58    21    60 1   
    59    22    33 ar  
    60    22    34 ar  
    61    22    61 1   
    62    23    34 ar  
    63    23    62 1   
    64    24    25 ar  
    65    24    28 1   
    66    25    26 ar  
    67    25    63 1   
    68    26    64 1   
    69    29    36 1   
    70    29    65 1   
    71    32    69 1   
    72    35    69 2   
    73    36    71 2   
    74    36    72 2   
    75    41    70 1   
    76    42    70 1   
@<TRIPOS>SUBSTRUCTURE
     1 QH1         1 TEMP              0 ****  ****    0 ROOT
