@<TRIPOS>MOLECULE
QH2
   58    62     1     0     0
SMALL
No Charge or Current Charge


@<TRIPOS>ATOM
      1 C1         -37.0260   -22.2850     6.6780 c          1 QH2       0.731000
      2 C10        -39.3630   -19.9640     6.2910 ca         1 QH2      -0.127000
      3 C11        -39.4560   -18.6050     6.6510 ca         1 QH2       0.039800
      4 C12        -41.5010   -17.5120     9.1920 cc         1 QH2       0.256900
      5 C13        -40.4480   -18.0670     9.9440 cc         1 QH2      -0.224600
      6 C14        -40.4520   -18.1140    11.4250 c          1 QH2       0.738600
      7 C15        -39.5110   -18.5280     9.0460 cd         1 QH2      -0.092300
      8 C16        -38.1890   -19.1700     9.3150 cx         1 QH2      -0.027400
      9 C17        -37.1000   -18.4500    10.0890 cx         1 QH2      -0.055400
     10 C18        -36.2110   -19.1460    11.0950 ca         1 QH2      -0.002300
     11 C19        -35.7860   -18.4490    12.2450 ca         1 QH2      -0.090500
     12 C2         -38.0760   -22.7420     5.6130 c3         1 QH2       0.038800
     13 C20        -34.9530   -19.0700    13.1920 ca         1 QH2      -0.124500
     14 C21        -34.5360   -20.3960    13.0000 ca         1 QH2      -0.142000
     15 C22        -34.9520   -21.1010    11.8600 ca         1 QH2      -0.124500
     16 C23        -35.7850   -20.4800    10.9110 ca         1 QH2      -0.090500
     17 C24        -36.9460   -18.6770     8.6050 cx         1 QH2      -0.134400
     18 C25        -38.8950   -17.6240     5.8120 ca         1 QH2      -0.109000
     19 C26        -38.2370   -17.9990     4.6300 ca         1 QH2      -0.121000
     20 C27        -38.1540   -19.3560     4.2750 ca         1 QH2      -0.057000
     21 C3         -41.3420   -21.7350     4.4190 ca         1 QH2      -0.291500
     22 C4         -41.9390   -20.4780     4.1910 ca         1 QH2      -0.012500
     23 C5         -43.0970   -20.1130     4.8980 ca         1 QH2      -0.135500
     24 C6         -43.6640   -20.9970     5.8320 ca         1 QH2      -0.069000
     25 C7         -43.0700   -22.2500     6.0600 ca         1 QH2      -0.135500
     26 C8         -41.9100   -22.6210     5.3580 ca         1 QH2      -0.012500
     27 C9         -38.7240   -20.3470     5.0970 ca         1 QH2       0.278000
     28 N1         -38.6760   -21.7010     4.7180 nh         1 QH2      -0.675300
     29 N2         -40.1230   -18.2280     7.8180 na         1 QH2       0.193000
     30 N3         -41.3450   -17.5880     7.8870 nd         1 QH2      -0.583800
     31 O1         -37.3170   -22.4030     7.8610 o          1 QH2      -0.711500
     32 O2         -39.7540   -23.6540     3.4510 o          1 QH2      -0.563500
     33 O3         -39.6570   -21.3290     2.3800 o          1 QH2      -0.563500
     34 O4         -39.5420   -18.6670    12.0200 o          1 QH2      -0.730500
     35 O5         -41.3990   -17.6110    12.0110 o          1 QH2      -0.730500
     36 O6         -35.9440   -21.8610     6.2910 o          1 QH2      -0.711500
     37 S1         -39.8260   -22.1910     3.5560 sy         1 QH2       1.124600
     38 H8         -39.8120   -20.7220     6.9250 ha         1 QH2       0.134000
     39 H9         -42.4060   -17.0550     9.5730 h4         1 QH2       0.027100
     40 H11        -38.2710   -20.2460     9.4500 hc         1 QH2       0.091700
     41 H12        -37.3340   -17.4310    10.3880 hc         1 QH2       0.086700
     42 H13        -36.1020   -17.4210    12.4070 ha         1 QH2       0.127500
     43 H2         -38.8820   -23.2570     6.1520 h1         1 QH2       0.038200
     44 H1         -37.5700   -23.4940     4.9950 h1         1 QH2       0.038200
     45 H14        -34.6320   -18.5220    14.0750 ha         1 QH2       0.091000
     46 H15        -33.8920   -20.8770    13.7330 ha         1 QH2       0.081000
     47 H16        -34.6300   -22.1280    11.7080 ha         1 QH2       0.091000
     48 H17        -36.0940   -21.0440    10.0350 ha         1 QH2       0.127500
     49 H18        -36.2340   -19.4220     8.2620 hc         1 QH2       0.088700
     50 H19        -37.0240   -17.8020     7.9650 hc         1 QH2       0.088700
     51 H20        -38.9690   -16.5720     6.0820 ha         1 QH2       0.121000
     52 H21        -37.7990   -17.2400     3.9850 ha         1 QH2       0.097000
     53 H22        -37.6510   -19.6440     3.3560 ha         1 QH2       0.127000
     54 H3         -41.5040   -19.7780     3.4800 ha         1 QH2       0.135000
     55 H4         -43.5530   -19.1410     4.7260 ha         1 QH2       0.108500
     56 H5         -44.5590   -20.7110     6.3790 ha         1 QH2       0.103000
     57 H6         -43.5060   -22.9330     6.7850 ha         1 QH2       0.108500
     58 H7         -41.4520   -23.5900     5.5520 ha         1 QH2       0.135000
@<TRIPOS>BOND
     1     1    12 1   
     2     1    31 1   
     3     1    36 1   
     4     2     3 ar  
     5     2    27 ar  
     6     2    38 1   
     7     3    18 ar  
     8     3    29 1   
     9     4     5 1   
    10     4    30 2   
    11     4    39 1   
    12     5     6 1   
    13     5     7 2   
    14     6    34 1   
    15     6    35 1   
    16     7     8 1   
    17     7    29 1   
    18     8     9 1   
    19     8    17 1   
    20     8    40 1   
    21     9    10 1   
    22     9    17 1   
    23     9    41 1   
    24    10    11 ar  
    25    10    16 ar  
    26    11    13 ar  
    27    11    42 1   
    28    12    28 1   
    29    12    43 1   
    30    12    44 1   
    31    13    14 ar  
    32    13    45 1   
    33    14    15 ar  
    34    14    46 1   
    35    15    16 ar  
    36    15    47 1   
    37    16    48 1   
    38    17    49 1   
    39    17    50 1   
    40    18    19 ar  
    41    18    51 1   
    42    19    20 ar  
    43    19    52 1   
    44    20    27 ar  
    45    20    53 1   
    46    21    22 ar  
    47    21    26 ar  
    48    21    37 1   
    49    22    23 ar  
    50    22    54 1   
    51    23    24 ar  
    52    23    55 1   
    53    24    25 ar  
    54    24    56 1   
    55    25    26 ar  
    56    25    57 1   
    57    26    58 1   
    58    27    28 1   
    59    28    37 1   
    60    29    30 1   
    61    32    37 2   
    62    33    37 2   
@<TRIPOS>SUBSTRUCTURE
     1 QH2         1 TEMP              0 ****  ****    0 ROOT
