@<TRIPOS>MOLECULE
QH2
   58    62     1     0     0
SMALL
abcg2


@<TRIPOS>ATOM
      1 C1         -36.4490   -21.7350     6.0080 c          1 QH2       0.731000
      2 C10        -39.1080   -19.3790     6.0660 ca         1 QH2      -0.127000
      3 C11        -39.1450   -18.0020     6.2400 ca         1 QH2       0.039800
      4 C12        -40.8200   -16.1740     8.6260 cc         1 QH2       0.256900
      5 C13        -40.1540   -17.0240     9.5300 cc         1 QH2      -0.224600
      6 C14        -40.3050   -17.0190    11.0260 c          1 QH2       0.738600
      7 C15        -39.3850   -17.8410     8.7220 cd         1 QH2      -0.092300
      8 C16        -38.3890   -18.8820     9.0440 cx         1 QH2      -0.027400
      9 C17        -37.2330   -18.5540     9.9490 cx         1 QH2      -0.055400
     10 C18        -36.7740   -19.5220    10.9740 ca         1 QH2      -0.002300
     11 C19        -36.4090   -19.0590    12.2370 ca         1 QH2      -0.090500
     12 C2         -37.9340   -22.1040     5.7680 c3         1 QH2       0.038800
     13 C20        -35.9740   -19.9330    13.2240 ca         1 QH2      -0.124500
     14 C21        -35.8990   -21.2950    12.9660 ca         1 QH2      -0.142000
     15 C22        -36.2580   -21.7690    11.7110 ca         1 QH2      -0.124500
     16 C23        -36.6880   -20.8930    10.7240 ca         1 QH2      -0.090500
     17 C24        -37.0040   -18.7900     8.4860 cx         1 QH2      -0.134400
     18 C25        -38.7210   -17.1530     5.2270 ca         1 QH2      -0.109000
     19 C26        -38.2480   -17.6950     4.0410 ca         1 QH2      -0.121000
     20 C27        -38.1790   -19.0670     3.8680 ca         1 QH2      -0.057000
     21 C3         -41.1010   -22.2130     5.1000 ca         1 QH2      -0.291500
     22 C4         -41.9840   -21.1650     5.3320 ca         1 QH2      -0.012500
     23 C5         -42.9360   -21.2960     6.3310 ca         1 QH2      -0.135500
     24 C6         -43.0040   -22.4610     7.0840 ca         1 QH2      -0.069000
     25 C7         -42.1200   -23.5040     6.8380 ca         1 QH2      -0.135500
     26 C8         -41.1610   -23.3860     5.8440 ca         1 QH2      -0.012500
     27 C9         -38.6100   -19.9110     4.8840 ca         1 QH2       0.278000
     28 N1         -38.5430   -21.3200     4.6940 nh         1 QH2      -0.675300
     29 N2         -39.6470   -17.4580     7.4410 na         1 QH2       0.193000
     30 N3         -40.5160   -16.4420     7.3750 nd         1 QH2      -0.583800
     31 O1         -36.0130   -22.0980     7.1180 o          1 QH2      -0.711500
     32 O2         -39.3920   -23.3250     3.4520 o          1 QH2      -0.563500
     33 O3         -40.2880   -21.0440     2.9050 o          1 QH2      -0.563500
     34 O4         -39.8260   -17.9860    11.6490 o          1 QH2      -0.730500
     35 O5         -40.9180   -16.0420    11.5030 o          1 QH2      -0.730500
     36 O6         -35.8400   -21.1730     5.0880 o          1 QH2      -0.711500
     37 S1         -39.8240   -22.0080     3.8870 sy         1 QH2       1.124600
     38 H8         -39.4820   -20.0300     6.8440 ha         1 QH2       0.134000
     39 H9         -41.5200   -15.3850     8.8540 h4         1 QH2       0.027100
     40 H11        -38.7880   -19.8860     9.1640 hc         1 QH2       0.091700
     41 H12        -37.1810   -17.5200    10.2700 hc         1 QH2       0.086700
     42 H13        -36.4670   -17.9990    12.4500 ha         1 QH2       0.127500
     43 H2         -38.4970   -22.0210     6.7030 h1         1 QH2       0.038200
     44 H1         -37.9600   -23.1570     5.4830 h1         1 QH2       0.038200
     45 H14        -35.6950   -19.5480    14.1970 ha         1 QH2       0.091000
     46 H15        -35.5620   -21.9800    13.7340 ha         1 QH2       0.081000
     47 H16        -36.2000   -22.8290    11.4960 ha         1 QH2       0.091000
     48 H17        -36.9440   -21.2940     9.7490 ha         1 QH2       0.127500
     49 H18        -36.5190   -19.7080     8.1790 hc         1 QH2       0.088700
     50 H19        -36.7520   -17.9300     7.8780 hc         1 QH2       0.088700
     51 H20        -38.7520   -16.0810     5.3670 ha         1 QH2       0.121000
     52 H21        -37.9110   -17.0370     3.2510 ha         1 QH2       0.097000
     53 H22        -37.7820   -19.4880     2.9560 ha         1 QH2       0.127000
     54 H3         -41.9410   -20.2590     4.7420 ha         1 QH2       0.135000
     55 H4         -43.6300   -20.4870     6.5180 ha         1 QH2       0.108500
     56 H5         -43.7490   -22.5580     7.8620 ha         1 QH2       0.103000
     57 H6         -42.1760   -24.4140     7.4200 ha         1 QH2       0.108500
     58 H7         -40.4760   -24.2010     5.6520 ha         1 QH2       0.135000
@<TRIPOS>BOND
     1     1    12 1   
     2     1    31 1   
     3     1    36 1   
     4     2     3 ar  
     5     2    27 ar  
     6     2    38 1   
     7     3    18 ar  
     8     3    29 1   
     9     4     5 1   
    10     4    30 2   
    11     4    39 1   
    12     5     6 1   
    13     5     7 2   
    14     6    34 1   
    15     6    35 1   
    16     7     8 1   
    17     7    29 1   
    18     8     9 1   
    19     8    17 1   
    20     8    40 1   
    21     9    10 1   
    22     9    17 1   
    23     9    41 1   
    24    10    11 ar  
    25    10    16 ar  
    26    11    13 ar  
    27    11    42 1   
    28    12    28 1   
    29    12    43 1   
    30    12    44 1   
    31    13    14 ar  
    32    13    45 1   
    33    14    15 ar  
    34    14    46 1   
    35    15    16 ar  
    36    15    47 1   
    37    16    48 1   
    38    17    49 1   
    39    17    50 1   
    40    18    19 ar  
    41    18    51 1   
    42    19    20 ar  
    43    19    52 1   
    44    20    27 ar  
    45    20    53 1   
    46    21    22 ar  
    47    21    26 ar  
    48    21    37 1   
    49    22    23 ar  
    50    22    54 1   
    51    23    24 ar  
    52    23    55 1   
    53    24    25 ar  
    54    24    56 1   
    55    25    26 ar  
    56    25    57 1   
    57    26    58 1   
    58    27    28 1   
    59    28    37 1   
    60    29    30 1   
    61    32    37 2   
    62    33    37 2   
@<TRIPOS>SUBSTRUCTURE
     1 QH2         1 TEMP              0 ****  ****    0 ROOT
