@<TRIPOS>MOLECULE
QH3
   21    21     1     0     0
SMALL
No Charge or Current Charge


@<TRIPOS>ATOM
      1 Cl1         -4.1110     0.8810     0.4840 cl         1 QH3      -0.170000
      2 C02         -2.4090     0.6600     0.0740 ca         1 QH3       0.123000
      3 C03         -1.5930     1.7930    -0.0890 ca         1 QH3      -0.098000
      4 C04         -0.2340     1.6440    -0.4150 ca         1 QH3      -0.085000
      5 C05          0.3190     0.3600    -0.5820 ca         1 QH3      -0.075300
      6 C06          1.7920     0.1960    -0.9310 c3         1 QH3       0.122900
      7 S07          2.7940    -0.0590     0.6000 ss         1 QH3      -0.321200
      8 C08          4.4310    -0.2230    -0.0530 c2         1 QH3       0.660100
      9 N09          4.7360    -0.1590    -1.2710 n2         1 QH3      -0.852100
     10 N10          5.3430    -0.4270     0.9080 nv         1 QH3      -1.063200
     11 C11         -0.5000    -0.7740    -0.4170 ca         1 QH3      -0.080000
     12 C12         -1.8600    -0.6280    -0.0900 ca         1 QH3       0.116000
     13 Cl2         -2.8520    -2.0730     0.1080 cl         1 QH3      -0.170000
     14 H03         -2.0160     2.7870     0.0400 ha         1 QH3       0.134000
     15 H04          0.3900     2.5280    -0.5350 ha         1 QH3       0.125000
     16 H061         1.9260    -0.6660    -1.5970 h1         1 QH3       0.089200
     17 H062         2.1570     1.0880    -1.4550 h1         1 QH3       0.089200
     18 H11         -0.0840    -1.7710    -0.5390 ha         1 QH3       0.138000
     19 H09          5.7460    -0.3280    -1.3480 hn         1 QH3       0.382400
     20 H101         4.9580    -0.3080     1.8380 hn         1 QH3       0.468000
     21 H102         6.2220     0.0550     0.7610 hn         1 QH3       0.468000
@<TRIPOS>BOND
     1     1     2 1   
     2     2     3 ar  
     3     2    12 ar  
     4     3     4 ar  
     5     3    14 1   
     6     4     5 ar  
     7     4    15 1   
     8     5     6 1   
     9     5    11 ar  
    10     6     7 1   
    11     6    16 1   
    12     6    17 1   
    13     7     8 1   
    14     8     9 2   
    15     8    10 1   
    16     9    19 1   
    17    10    20 1   
    18    10    21 1   
    19    11    12 ar  
    20    11    18 1   
    21    12    13 1   
@<TRIPOS>SUBSTRUCTURE
     1 QH3         1 TEMP              0 ****  ****    0 ROOT
