@<TRIPOS>MOLECULE
QH3
   21    21     1     0     0
SMALL
bcc


@<TRIPOS>ATOM
      1 CL1         -3.9930     0.8430     0.5420 cl         1 QH3      -0.078400
      2 C02         -2.3410     0.6470     0.0990 ca         1 QH3       0.031400
      3 C03         -1.5430     1.7670    -0.0810 ca         1 QH3      -0.116000
      4 C04         -0.2130     1.6190    -0.4370 ca         1 QH3      -0.103000
      5 C05          0.3350     0.3550    -0.6260 ca         1 QH3      -0.075300
      6 C06          1.7810     0.1900    -0.9860 c3         1 QH3       0.075000
      7 S07          2.6910    -0.0550     0.5680 ss         1 QH3      -0.273300
      8 C08          4.3640    -0.1790    -0.0170 c2         1 QH3       0.660100
      9 N09          4.6070    -0.1170    -1.2620 n2         1 QH3      -0.852100
     10 N10          5.2370    -0.3950     1.0060 nv         1 QH3      -0.952800
     11 C11         -0.4690    -0.7630    -0.4420 ca         1 QH3      -0.098000
     12 C12         -1.8000    -0.6210    -0.0840 ca         1 QH3       0.024400
     13 CL2         -2.7720    -2.0270     0.1300 cl         1 QH3      -0.078400
     14 H03         -1.9630     2.7530     0.0590 ha         1 QH3       0.152000
     15 H04          0.3990     2.5020    -0.5750 ha         1 QH3       0.143000
     16 H061         1.9390    -0.6710    -1.6330 h1         1 QH3       0.089200
     17 H062         2.1680     1.0750    -1.4890 h1         1 QH3       0.089200
     18 H11         -0.0610    -1.7560    -0.5840 ha         1 QH3       0.156000
     19 H09          5.6030    -0.2020    -1.4470 hn         1 QH3       0.382400
     20 H101         4.9720    -0.1330     1.9420 hn         1 QH3       0.412800
     21 H102         6.2160    -0.2560     0.8100 hn         1 QH3       0.412800
@<TRIPOS>BOND
     1     1     2 1   
     2     2     3 ar  
     3     2    12 ar  
     4     3     4 ar  
     5     3    14 1   
     6     4     5 ar  
     7     4    15 1   
     8     5     6 1   
     9     5    11 ar  
    10     6     7 1   
    11     6    16 1   
    12     6    17 1   
    13     7     8 1   
    14     8     9 2   
    15     8    10 1   
    16     9    19 1   
    17    10    20 1   
    18    10    21 1   
    19    11    12 ar  
    20    11    18 1   
    21    12    13 1   
@<TRIPOS>SUBSTRUCTURE
     1 QH3         1 TEMP              0 ****  ****    0 ROOT
