@<TRIPOS>MOLECULE
QH4
   80    85     1     0     0
SMALL
abcg2


@<TRIPOS>ATOM
      1 C18         24.8350     0.9220   -20.0150 c3         1 QH4      -0.035300
      2 N5          24.5720     4.3960   -22.3810 nb         1 QH4      -0.349000
      3 C14         26.9150     0.9880   -22.7030 c6         1 QH4       0.091000
      4 C13         26.2170     2.3280   -22.5850 c6         1 QH4       0.219800
      5 C17         24.2640     0.8290   -22.4930 c6         1 QH4       0.214800
      6 C16         25.0180     0.1660   -21.3480 c6         1 QH4       0.098700
      7 N3          22.5820     5.6070   -22.7310 nb         1 QH4      -0.226000
      8 C10         20.6090     4.6730   -23.6840 c6         1 QH4       0.124500
      9 C8          20.8720     2.6240   -24.8860 c6         1 QH4       0.183800
     10 C22         25.6130    10.1860   -21.9030 c5         1 QH4       0.174800
     11 C7          22.0100     2.1270   -24.0120 c6         1 QH4      -0.003100
     12 C6          23.9910     3.2680   -22.7910 ca         1 QH4       0.421900
     13 C1          22.6620     3.2710   -23.2800 ca         1 QH4      -0.258300
     14 C4          23.8470     5.4950   -22.3780 ca         1 QH4       0.396300
     15 C19         25.7420     6.6090   -21.4900 c3         1 QH4       0.187600
     16 C20         26.1230     8.0220   -21.1020 c5         1 QH4       0.180500
     17 C2          22.0160     4.4910   -23.1940 ca         1 QH4       0.172300
     18 N9          19.9850     3.4170   -24.0560 nh         1 QH4      -0.779400
     19 O11         24.4040     6.6300   -21.9750 os         1 QH4      -0.421300
     20 N12         24.7800     2.1600   -22.7520 nh         1 QH4      -0.797300
     21 N15         26.4270     0.0680   -21.6860 n          1 QH4      -0.419800
     22 N21         26.1640     8.8970   -22.2710 n3         1 QH4      -0.732600
     23 C23         24.4970     9.8180   -20.9410 c5         1 QH4      -0.082400
     24 C24         25.1430     8.7000   -20.1230 c5         1 QH4      -0.078400
     25 C25         27.4410     8.9590   -22.9320 c3         1 QH4       0.165100
     26 C26         18.6490     3.5550   -24.4790 ca         1 QH4       0.271000
     27 C27         18.2860     3.5220   -25.8030 ca         1 QH4      -0.156000
     28 C28         16.9410     3.6780   -26.1940 ca         1 QH4      -0.094000
     29 C29         15.9650     3.8910   -25.2620 ca         1 QH4      -0.110000
     30 C30         16.2930     3.9180   -23.8850 ca         1 QH4      -0.027000
     31 C31         17.6400     3.7250   -23.4810 ca         1 QH4      -0.034000
     32 C32         15.2990     4.1080   -22.8950 ca         1 QH4      -0.108000
     33 C33         15.6180     4.0870   -21.5660 ca         1 QH4      -0.101000
     34 C34         16.9490     3.8550   -21.1640 ca         1 QH4      -0.116000
     35 C35         17.9330     3.6760   -22.0980 ca         1 QH4      -0.083000
     36 C36         27.1660    -0.9230   -21.1280 c          1 QH4       0.603100
     37 O37         26.6860    -1.6670   -20.2820 o          1 QH4      -0.598100
     38 C38         28.6130    -1.0580   -21.5460 c3         1 QH4      -0.156400
     39 C39         29.5240    -0.1820   -20.6840 c3         1 QH4      -0.086100
     40 C40         23.4440     0.9500   -19.5970 c1         1 QH4       0.297900
     41 N41         22.3370     0.9680   -19.2850 n1         1 QH4      -0.456000
     42 H1          25.4150     0.4350   -19.2300 hc         1 QH4       0.086200
     43 H2          25.1880     1.9520   -20.0880 hc         1 QH4       0.086200
     44 H3          26.7800     0.5740   -23.7070 h1         1 QH4       0.054700
     45 H4          27.9780     1.1700   -22.5690 h1         1 QH4       0.054700
     46 H5          26.6030     2.9920   -23.3590 h1         1 QH4       0.060200
     47 H6          26.4690     2.7870   -21.6240 h1         1 QH4       0.060200
     48 H7          23.2170     0.8830   -22.2110 h1         1 QH4       0.066700
     49 H8          24.3180     0.1850   -23.3760 h1         1 QH4       0.066700
     50 H9          24.6100    -0.8390   -21.2300 h1         1 QH4       0.089700
     51 H10         20.6380     5.3770   -24.5320 h1         1 QH4       0.070200
     52 H11         20.0330     5.1640   -22.8980 h1         1 QH4       0.070200
     53 H12         20.3230     1.7700   -25.2830 h1         1 QH4       0.041200
     54 H13         21.2630     3.1910   -25.7440 h1         1 QH4       0.041200
     55 H15         25.2660    10.7260   -22.7880 h1         1 QH4       0.033700
     56 H16         21.5960     1.3830   -23.3280 hc         1 QH4       0.051200
     57 H17         22.7460     1.6130   -24.6360 hc         1 QH4       0.051200
     58 H18         25.8200     5.9450   -20.6240 h1         1 QH4       0.044700
     59 H19         26.4190     6.2230   -22.2570 h1         1 QH4       0.044700
     60 H20         27.1140     7.9460   -20.6290 h1         1 QH4       0.036700
     61 H22         24.1720    10.6600   -20.3300 hc         1 QH4       0.059200
     62 H23         23.6300     9.4470   -21.4910 hc         1 QH4       0.059200
     63 H24         24.4170     8.0080   -19.6950 hc         1 QH4       0.048700
     64 H25         25.7020     9.1290   -19.2910 hc         1 QH4       0.048700
     65 H26         27.7700     7.9630   -23.2320 h1         1 QH4       0.027033
     66 H27         27.3660     9.5610   -23.8400 h1         1 QH4       0.027033
     67 H28         28.2340     9.3980   -22.3050 h1         1 QH4       0.027033
     68 H29         19.0410     3.3940   -26.5690 ha         1 QH4       0.111000
     69 H30         16.6920     3.6480   -27.2470 ha         1 QH4       0.112000
     70 H31         14.9340     4.0310   -25.5630 ha         1 QH4       0.114000
     71 H32         14.2740     4.2660   -23.2090 ha         1 QH4       0.111000
     72 H33         14.8480     4.2320   -20.8190 ha         1 QH4       0.112000
     73 H34         17.1900     3.8080   -20.1100 ha         1 QH4       0.115000
     74 H35         18.9470     3.4690   -21.7810 ha         1 QH4       0.132000
     75 H36         28.8820    -2.1050   -21.4070 hc         1 QH4       0.065200
     76 H37         28.7580    -0.8340   -22.6030 hc         1 QH4       0.065200
     77 H38         30.5680    -0.3710   -20.9310 hc         1 QH4       0.042033
     78 H39         29.3380     0.8820   -20.8340 hc         1 QH4       0.042033
     79 H40         29.3870    -0.3980   -19.6250 hc         1 QH4       0.042033
     80 H14         26.3520    10.8310   -21.3960 h1         1 QH4       0.033700
@<TRIPOS>BOND
     1     1     6 1   
     2     1    40 1   
     3     1    42 1   
     4     1    43 1   
     5     2    12 ar  
     6     2    14 ar  
     7     3     4 1   
     8     3    21 1   
     9     3    44 1   
    10     3    45 1   
    11     4    20 1   
    12     4    46 1   
    13     4    47 1   
    14     5     6 1   
    15     5    20 1   
    16     5    48 1   
    17     5    49 1   
    18     6    21 1   
    19     6    50 1   
    20     7    14 ar  
    21     7    17 ar  
    22     8    17 1   
    23     8    18 1   
    24     8    51 1   
    25     8    52 1   
    26     9    11 1   
    27     9    18 1   
    28     9    53 1   
    29     9    54 1   
    30    10    22 1   
    31    10    23 1   
    32    10    55 1   
    33    10    80 1   
    34    11    13 1   
    35    11    56 1   
    36    11    57 1   
    37    12    13 ar  
    38    12    20 1   
    39    13    17 ar  
    40    14    19 1   
    41    15    16 1   
    42    15    19 1   
    43    15    58 1   
    44    15    59 1   
    45    16    22 1   
    46    16    24 1   
    47    16    60 1   
    48    18    26 1   
    49    21    36 1   
    50    22    25 1   
    51    23    24 1   
    52    23    61 1   
    53    23    62 1   
    54    24    63 1   
    55    24    64 1   
    56    25    65 1   
    57    25    66 1   
    58    25    67 1   
    59    26    27 ar  
    60    26    31 ar  
    61    27    28 ar  
    62    27    68 1   
    63    28    29 ar  
    64    28    69 1   
    65    29    30 ar  
    66    29    70 1   
    67    30    31 ar  
    68    30    32 ar  
    69    31    35 ar  
    70    32    33 ar  
    71    32    71 1   
    72    33    34 ar  
    73    33    72 1   
    74    34    35 ar  
    75    34    73 1   
    76    35    74 1   
    77    36    37 2   
    78    36    38 1   
    79    38    39 1   
    80    38    75 1   
    81    38    76 1   
    82    39    77 1   
    83    39    78 1   
    84    39    79 1   
    85    40    41 3   
@<TRIPOS>SUBSTRUCTURE
     1 QH4         1 TEMP              0 ****  ****    0 ROOT
