@<TRIPOS>MOLECULE
QH4
   80    85     1     0     0
SMALL
No Charge or Current Charge


@<TRIPOS>ATOM
      1 C18         25.4020     1.5690   -19.6910 c3         1 QH4      -0.035300
      2 N5          24.4800     4.4600   -22.3970 nb         1 QH4      -0.349000
      3 C14         26.8330     0.7940   -22.7080 c6         1 QH4       0.091000
      4 C13         26.1540     2.1800   -22.9140 c6         1 QH4       0.219800
      5 C17         24.1490     1.0180   -21.9040 c6         1 QH4       0.214800
      6 C16         25.1620     0.5190   -20.8220 c6         1 QH4       0.098700
      7 N3          22.5260     5.7080   -22.9790 nb         1 QH4      -0.226000
      8 C10         20.5280     4.7380   -24.0180 c6         1 QH4       0.124500
      9 C8          20.7780     2.4380   -24.9510 c6         1 QH4       0.183800
     10 C22         26.3060    10.5380   -21.3070 c5         1 QH4       0.174800
     11 C7          21.9150     2.0920   -23.9600 c6         1 QH4      -0.003100
     12 C6          23.9040     3.3330   -22.8440 ca         1 QH4       0.421900
     13 C1          22.6100     3.3430   -23.3970 ca         1 QH4      -0.258300
     14 C4          23.7720     5.6050   -22.4800 ca         1 QH4       0.396300
     15 C19         25.6650     6.7920   -21.4450 c3         1 QH4       0.187600
     16 C20         26.0450     8.2470   -21.0190 c5         1 QH4       0.180500
     17 C2          21.9460     4.5830   -23.4360 ca         1 QH4       0.172300
     18 N9          19.8560     3.4480   -24.3670 nh         1 QH4      -0.779400
     19 O11         24.3380     6.7740   -22.0210 os         1 QH4      -0.421300
     20 N12         24.6700     2.1580   -22.7150 nh         1 QH4      -0.797300
     21 N15         26.4560     0.0860   -21.4420 n          1 QH4      -0.419800
     22 N21         25.9940     9.3060   -22.0640 n3         1 QH4      -0.732600
     23 C23         25.4180    10.3990   -20.0380 c5         1 QH4      -0.082400
     24 C24         25.0970     8.8730   -19.9580 c5         1 QH4      -0.078400
     25 C25         26.8380     9.0850   -23.2570 c3         1 QH4       0.165100
     26 C26         18.4900     3.4600   -24.7400 ca         1 QH4       0.271000
     27 C27         18.1550     3.4490   -26.1080 ca         1 QH4      -0.156000
     28 C28         16.8140     3.4800   -26.5210 ca         1 QH4      -0.094000
     29 C29         15.7890     3.5250   -25.5660 ca         1 QH4      -0.110000
     30 C30         16.1000     3.5360   -24.1940 ca         1 QH4      -0.027000
     31 C31         17.4520     3.5020   -23.7710 ca         1 QH4      -0.034000
     32 C32         15.0600     3.5780   -23.2450 ca         1 QH4      -0.108000
     33 C33         15.3550     3.5820   -21.8720 ca         1 QH4      -0.101000
     34 C34         16.6900     3.5410   -21.4430 ca         1 QH4      -0.116000
     35 C35         17.7330     3.4990   -22.3840 ca         1 QH4      -0.083000
     36 C36         27.1560    -1.0440   -20.9530 c          1 QH4       0.603100
     37 O37         26.7670    -1.6290   -19.9500 o          1 QH4      -0.598100
     38 C38         28.4450    -1.5090   -21.6560 c3         1 QH4      -0.156400
     39 C39         29.6900    -0.8060   -21.0690 c3         1 QH4      -0.086100
     40 C40         24.1970     1.9030   -18.9250 c1         1 QH4       0.297900
     41 N41         23.2250     2.1500   -18.3340 n1         1 QH4      -0.456000
     42 H1          26.1460     1.1850   -18.9850 hc         1 QH4       0.086200
     43 H2          25.8140     2.4980   -20.0960 hc         1 QH4       0.086200
     44 H3          26.5700     0.1480   -23.5570 h1         1 QH4       0.054700
     45 H4          27.9200     0.9480   -22.7380 h1         1 QH4       0.054700
     46 H5          26.3880     2.5340   -23.9290 h1         1 QH4       0.060200
     47 H6          26.6180     2.8900   -22.2150 h1         1 QH4       0.060200
     48 H7          23.2040     1.2950   -21.4140 h1         1 QH4       0.066700
     49 H8          23.9100     0.1770   -22.5720 h1         1 QH4       0.066700
     50 H9          24.6930    -0.3570   -20.3500 h1         1 QH4       0.089700
     51 H10         20.5960     5.3720   -24.9150 h1         1 QH4       0.070200
     52 H11         19.9190     5.2880   -23.2860 h1         1 QH4       0.070200
     53 H12         20.2310     1.5170   -25.2030 h1         1 QH4       0.041200
     54 H13         21.2160     2.8270   -25.8830 h1         1 QH4       0.041200
     55 H15         26.0730    11.4490   -21.8760 h1         1 QH4       0.033700
     56 H16         21.4960     1.5080   -23.1310 hc         1 QH4       0.051200
     57 H17         22.6420     1.4430   -24.4670 hc         1 QH4       0.051200
     58 H18         25.7100     6.1450   -20.5590 h1         1 QH4       0.044700
     59 H19         26.4060     6.4280   -22.1680 h1         1 QH4       0.044700
     60 H20         27.0630     8.1880   -20.6040 h1         1 QH4       0.036700
     61 H22         25.9430    10.7590   -19.1470 hc         1 QH4       0.059200
     62 H23         24.4980    10.9880   -20.1290 hc         1 QH4       0.059200
     63 H24         24.0440     8.6890   -20.2020 hc         1 QH4       0.048700
     64 H25         25.2710     8.4610   -18.9570 hc         1 QH4       0.048700
     65 H26         26.5230     8.1810   -23.7950 h1         1 QH4       0.027033
     66 H27         26.7570     9.9350   -23.9480 h1         1 QH4       0.027033
     67 H28         27.8930     8.9700   -22.9740 h1         1 QH4       0.027033
     68 H29         18.9410     3.4260   -26.8570 ha         1 QH4       0.111000
     69 H30         16.5700     3.4730   -27.5810 ha         1 QH4       0.112000
     70 H31         14.7520     3.5500   -25.8930 ha         1 QH4       0.114000
     71 H32         14.0230     3.6060   -23.5700 ha         1 QH4       0.111000
     72 H33         14.5480     3.6140   -21.1430 ha         1 QH4       0.112000
     73 H34         16.9190     3.5400   -20.3790 ha         1 QH4       0.115000
     74 H35         18.7590     3.4600   -22.0270 ha         1 QH4       0.132000
     75 H36         28.5610    -2.5900   -21.5140 hc         1 QH4       0.065200
     76 H37         28.4140    -1.2800   -22.7260 hc         1 QH4       0.065200
     77 H38         30.5990    -1.1440   -21.5820 hc         1 QH4       0.042033
     78 H39         29.6170     0.2820   -21.1840 hc         1 QH4       0.042033
     79 H40         29.7950    -1.0320   -20.0010 hc         1 QH4       0.042033
     80 H14         27.3700    10.5740   -21.0330 h1         1 QH4       0.033700
@<TRIPOS>BOND
     1     1     6 1   
     2     1    40 1   
     3     1    42 1   
     4     1    43 1   
     5     2    12 ar  
     6     2    14 ar  
     7     3     4 1   
     8     3    21 1   
     9     3    44 1   
    10     3    45 1   
    11     4    20 1   
    12     4    46 1   
    13     4    47 1   
    14     5     6 1   
    15     5    20 1   
    16     5    48 1   
    17     5    49 1   
    18     6    21 1   
    19     6    50 1   
    20     7    14 ar  
    21     7    17 ar  
    22     8    17 1   
    23     8    18 1   
    24     8    51 1   
    25     8    52 1   
    26     9    11 1   
    27     9    18 1   
    28     9    53 1   
    29     9    54 1   
    30    10    22 1   
    31    10    23 1   
    32    10    55 1   
    33    10    80 1   
    34    11    13 1   
    35    11    56 1   
    36    11    57 1   
    37    12    13 ar  
    38    12    20 1   
    39    13    17 ar  
    40    14    19 1   
    41    15    16 1   
    42    15    19 1   
    43    15    58 1   
    44    15    59 1   
    45    16    22 1   
    46    16    24 1   
    47    16    60 1   
    48    18    26 1   
    49    21    36 1   
    50    22    25 1   
    51    23    24 1   
    52    23    61 1   
    53    23    62 1   
    54    24    63 1   
    55    24    64 1   
    56    25    65 1   
    57    25    66 1   
    58    25    67 1   
    59    26    27 ar  
    60    26    31 ar  
    61    27    28 ar  
    62    27    68 1   
    63    28    29 ar  
    64    28    69 1   
    65    29    30 ar  
    66    29    70 1   
    67    30    31 ar  
    68    30    32 ar  
    69    31    35 ar  
    70    32    33 ar  
    71    32    71 1   
    72    33    34 ar  
    73    33    72 1   
    74    34    35 ar  
    75    34    73 1   
    76    35    74 1   
    77    36    37 2   
    78    36    38 1   
    79    38    39 1   
    80    38    75 1   
    81    38    76 1   
    82    39    77 1   
    83    39    78 1   
    84    39    79 1   
    85    40    41 3   
@<TRIPOS>SUBSTRUCTURE
     1 QH4         1 TEMP              0 ****  ****    0 ROOT
