@<TRIPOS>MOLECULE
QH5
   46    50     1     0     0
SMALL
No Charge or Current Charge


@<TRIPOS>ATOM
      1 C1         -41.1180   -22.1350     4.5910 ca         1 QH5      -0.306500
      2 C10        -39.1460   -17.7610     8.3610 cc         1 QH5      -0.052300
      3 C11        -40.1170   -18.8670     8.5330 cx         1 QH5      -0.081400
      4 C12        -41.4990   -18.5750     9.0750 cx         1 QH5      -0.113400
      5 C13        -41.3270   -18.9510     7.6260 cx         1 QH5      -0.113400
      6 C14        -38.5450   -16.9030     9.2540 cd         1 QH5      -0.250500
      7 C15        -38.6990   -16.9060    10.6830 cd         1 QH5       0.604500
      8 C16        -37.7170   -16.0000     8.5560 cd         1 QH5       0.287900
      9 C17        -39.3720   -17.1080     4.8730 ca         1 QH5      -0.096000
     10 C18        -39.6380   -17.7040     3.6290 ca         1 QH5      -0.088000
     11 C19        -39.3630   -19.0680     3.4310 ca         1 QH5      -0.101000
     12 C2         -42.1030   -21.2680     4.0730 ca         1 QH5      -0.014000
     13 C3         -43.3050   -21.0710     4.7750 ca         1 QH5      -0.130500
     14 C4         -43.5310   -21.7370     5.9920 ca         1 QH5      -0.056000
     15 C5         -42.5490   -22.5980     6.5120 ca         1 QH5      -0.130500
     16 C6         -41.3430   -22.7970     5.8170 ca         1 QH5      -0.014000
     17 C7         -38.8180   -19.8430     4.4720 ca         1 QH5       0.263000
     18 C8         -38.5360   -19.2370     5.7060 ca         1 QH5      -0.141000
     19 C9         -38.8230   -17.8730     5.9200 ca         1 QH5       0.030800
     20 N1         -38.5460   -21.1990     4.3150 nu         1 QH5      -0.873100
     21 N2         -38.5870   -17.2890     7.1680 na         1 QH5       0.221000
     22 N3         -39.4390   -17.7680    11.3530 nc         1 QH5      -0.527800
     23 N4         -39.2390   -17.3460    12.6370 na         1 QH5       0.105600
     24 N5         -38.4070   -16.2720    12.7360 nc         1 QH5      -0.170800
     25 N6         -38.0680   -15.9990    11.5100 nd         1 QH5      -0.384000
     26 N7         -37.7190   -16.2210     7.2570 nc         1 QH5      -0.507800
     27 O1         -39.7300   -22.0350     2.2880 o          1 QH5      -0.526500
     28 O2         -38.9330   -23.6190     4.1450 o          1 QH5      -0.526500
     29 S1         -39.5730   -22.3780     3.7040 sy         1 QH5       1.150600
     30 H8         -39.6510   -19.8080     8.8180 hc         1 QH5       0.094700
     31 H9         -41.7490   -17.5410     9.3030 hc         1 QH5       0.078450
     32 H10        -41.9450   -19.3080     9.7410 hc         1 QH5       0.078450
     33 H11        -41.4810   -18.1690     6.8860 hc         1 QH5       0.078450
     34 H12        -41.6510   -19.9400     7.3140 hc         1 QH5       0.078450
     35 H14        -37.1060   -15.2010     8.9580 h4         1 QH5       0.057100
     36 H15        -39.5960   -16.0550     5.0260 ha         1 QH5       0.141000
     37 H16        -40.0580   -17.1100     2.8200 ha         1 QH5       0.128000
     38 H17        -39.5640   -19.5120     2.4620 ha         1 QH5       0.152000
     39 H1         -41.9420   -20.7450     3.1320 ha         1 QH5       0.134500
     40 H2         -44.0620   -20.4020     4.3740 ha         1 QH5       0.122000
     41 H3         -44.4620   -21.5830     6.5330 ha         1 QH5       0.120000
     42 H4         -42.7220   -23.1100     7.4550 ha         1 QH5       0.122000
     43 H5         -40.5910   -23.4640     6.2350 ha         1 QH5       0.134500
     44 H7         -38.1110   -19.8280     6.5120 ha         1 QH5       0.126000
     45 H6         -38.1020   -21.6520     5.1010 hn         1 QH5       0.491000
     46 H13        -39.6650   -17.7850    13.4530 hn         1 QH5       0.404000
@<TRIPOS>BOND
     1     1    12 ar  
     2     1    16 ar  
     3     1    29 1   
     4     2     3 1   
     5     2     6 2   
     6     2    21 1   
     7     3     4 1   
     8     3     5 1   
     9     3    30 1   
    10     4     5 1   
    11     4    31 1   
    12     4    32 1   
    13     5    33 1   
    14     5    34 1   
    15     6     7 1   
    16     6     8 1   
    17     7    22 2   
    18     7    25 1   
    19     8    26 2   
    20     8    35 1   
    21     9    10 ar  
    22     9    19 ar  
    23     9    36 1   
    24    10    11 ar  
    25    10    37 1   
    26    11    17 ar  
    27    11    38 1   
    28    12    13 ar  
    29    12    39 1   
    30    13    14 ar  
    31    13    40 1   
    32    14    15 ar  
    33    14    41 1   
    34    15    16 ar  
    35    15    42 1   
    36    16    43 1   
    37    17    18 ar  
    38    17    20 1   
    39    18    19 ar  
    40    18    44 1   
    41    19    21 1   
    42    20    29 1   
    43    20    45 1   
    44    21    26 1   
    45    22    23 1   
    46    23    24 1   
    47    23    46 1   
    48    24    25 2   
    49    27    29 2   
    50    28    29 2   
@<TRIPOS>SUBSTRUCTURE
     1 QH5         1 TEMP              0 ****  ****    0 ROOT
