@<TRIPOS>MOLECULE
QH5
   46    50     1     0     0
SMALL
abcg2


@<TRIPOS>ATOM
      1 C1         -41.2130   -22.0230     4.7240 ca         1 QH5      -0.306500
      2 C10        -39.1400   -17.8070     8.2800 cc         1 QH5      -0.052300
      3 C11        -40.1560   -18.8700     8.3450 cx         1 QH5      -0.081400
      4 C12        -41.5060   -18.5660     8.9210 cx         1 QH5      -0.113400
      5 C13        -41.3610   -18.7980     7.4530 cx         1 QH5      -0.113400
      6 C14        -38.6250   -16.9810     9.2630 cd         1 QH5      -0.250500
      7 C15        -38.9050   -16.9830    10.6780 cd         1 QH5       0.604500
      8 C16        -37.7540   -16.1060     8.5840 cd         1 QH5       0.287900
      9 C17        -38.9800   -17.0790     4.7680 ca         1 QH5      -0.096000
     10 C18        -39.1380   -17.6130     3.4980 ca         1 QH5      -0.088000
     11 C19        -39.0440   -18.9780     3.2780 ca         1 QH5      -0.101000
     12 C2         -42.3370   -21.2900     4.3710 ca         1 QH5      -0.014000
     13 C3         -43.3940   -21.2100     5.2660 ca         1 QH5      -0.130500
     14 C4         -43.3190   -21.8510     6.4950 ca         1 QH5      -0.056000
     15 C5         -42.1810   -22.5710     6.8410 ca         1 QH5      -0.130500
     16 C6         -41.1210   -22.6650     5.9550 ca         1 QH5      -0.014000
     17 C7         -38.8060   -19.8290     4.3530 ca         1 QH5       0.263000
     18 C8         -38.6490   -19.3060     5.6320 ca         1 QH5      -0.141000
     19 C9         -38.7300   -17.9360     5.8300 ca         1 QH5       0.030800
     20 N1         -38.6380   -21.2190     4.1580 nu         1 QH5      -0.873100
     21 N2         -38.5520   -17.4030     7.1270 na         1 QH5       0.221000
     22 N3         -39.5070   -17.9540    11.3430 nc         1 QH5      -0.527800
     23 N4         -39.5060   -17.4770    12.5600 na         1 QH5       0.105600
     24 N5         -38.9520   -16.3120    12.6840 nc         1 QH5      -0.170800
     25 N6         -38.5600   -15.9720    11.5010 nd         1 QH5      -0.384000
     26 N7         -37.7190   -16.3700     7.3000 nc         1 QH5      -0.507800
     27 O1         -40.2980   -21.6350     2.3060 o          1 QH5      -0.526500
     28 O2         -39.3480   -23.5300     3.6560 o          1 QH5      -0.526500
     29 S1         -39.8690   -22.1790     3.5800 sy         1 QH5       1.150600
     30 H8         -39.7690   -19.8630     8.5490 hc         1 QH5       0.094700
     31 H9         -41.6980   -17.5540     9.2550 hc         1 QH5       0.078450
     32 H10        -41.9700   -19.3330     9.5270 hc         1 QH5       0.078450
     33 H11        -41.4570   -17.9440     6.7960 hc         1 QH5       0.078450
     34 H12        -41.7210   -19.7260     7.0320 hc         1 QH5       0.078450
     35 H14        -37.1540   -15.3100     8.9970 h4         1 QH5       0.057100
     36 H15        -39.0480   -16.0120     4.9310 ha         1 QH5       0.141000
     37 H16        -39.3250   -16.9520     2.6630 ha         1 QH5       0.128000
     38 H17        -39.1300   -19.3700     2.2750 ha         1 QH5       0.152000
     39 H1         -42.3990   -20.7950     3.4120 ha         1 QH5       0.134500
     40 H2         -44.2780   -20.6450     5.0000 ha         1 QH5       0.122000
     41 H3         -44.1460   -21.7850     7.1890 ha         1 QH5       0.120000
     42 H4         -42.1220   -23.0670     7.8010 ha         1 QH5       0.122000
     43 H5         -40.2420   -23.2370     6.2220 ha         1 QH5       0.134500
     44 H7         -38.4410   -19.9710     6.4610 ha         1 QH5       0.126000
     45 H6         -38.1370   -21.6850     4.9090 hn         1 QH5       0.491000
     46 H13        -39.9010   -17.9760    13.3470 hn         1 QH5       0.404000
@<TRIPOS>BOND
     1     1    12 ar  
     2     1    16 ar  
     3     1    29 1   
     4     2     3 1   
     5     2     6 2   
     6     2    21 1   
     7     3     4 1   
     8     3     5 1   
     9     3    30 1   
    10     4     5 1   
    11     4    31 1   
    12     4    32 1   
    13     5    33 1   
    14     5    34 1   
    15     6     7 1   
    16     6     8 1   
    17     7    22 2   
    18     7    25 1   
    19     8    26 2   
    20     8    35 1   
    21     9    10 ar  
    22     9    19 ar  
    23     9    36 1   
    24    10    11 ar  
    25    10    37 1   
    26    11    17 ar  
    27    11    38 1   
    28    12    13 ar  
    29    12    39 1   
    30    13    14 ar  
    31    13    40 1   
    32    14    15 ar  
    33    14    41 1   
    34    15    16 ar  
    35    15    42 1   
    36    16    43 1   
    37    17    18 ar  
    38    17    20 1   
    39    18    19 ar  
    40    18    44 1   
    41    19    21 1   
    42    20    29 1   
    43    20    45 1   
    44    21    26 1   
    45    22    23 1   
    46    23    24 1   
    47    23    46 1   
    48    24    25 2   
    49    27    29 2   
    50    28    29 2   
@<TRIPOS>SUBSTRUCTURE
     1 QH5         1 TEMP              0 ****  ****    0 ROOT
