@<TRIPOS>MOLECULE
QH6
   34    36     1     0     0
SMALL
No Charge or Current Charge


@<TRIPOS>ATOM
      1 N1         -16.4310     4.7560    26.4020 nb         1 QH6      -0.651000
      2 C4         -22.3140     5.7370    27.6170 c3         1 QH6      -0.108100
      3 C5         -20.8860     6.2770    27.4700 c          1 QH6       0.598100
      4 C6         -18.6790     5.6950    26.3490 ca         1 QH6      -0.077000
      5 C7         -17.7560     4.6740    26.6570 ca         1 QH6       0.304900
      6 C8         -15.9760     5.8830    25.8090 ca         1 QH6       0.357900
      7 C10        -16.2820     8.0880    24.8000 ca         1 QH6      -0.086000
      8 C13        -19.0480     7.9160    25.2840 ca         1 QH6      -0.084000
      9 C15        -22.2720     3.6440    29.0690 ca         1 QH6      -0.078000
     10 C16        -22.4290     2.9960    30.3070 ca         1 QH6       0.076000
     11 C          -22.8070     3.7380    31.4430 ca         1 QH6       0.182000
     12 F          -22.9610     3.1270    32.6400 f          1 QH6      -0.161000
     13 C3         -22.4910     5.0320    28.9600 ca         1 QH6      -0.093300
     14 C2         -22.8680     5.7680    30.1020 ca         1 QH6      -0.058000
     15 C1         -23.0250     5.1210    31.3410 ca         1 QH6      -0.138000
     16 O          -20.5200     7.3090    28.0230 o          1 QH6      -0.570100
     17 N          -20.0430     5.4930    26.6980 ns         1 QH6      -0.164000
     18 C14        -18.2020     6.8630    25.7010 ca         1 QH6      -0.001000
     19 C12        -18.5110     9.0470    24.6450 ca         1 QH6      -0.093000
     20 C11        -17.1300     9.1370    24.4090 ca         1 QH6      -0.105000
     21 C9         -16.8160     6.9510    25.4370 ca         1 QH6      -0.090000
     22 H1         -23.0140     6.5770    27.5480 hc         1 QH6       0.072200
     23 H2         -22.5230     5.0260    26.8080 hc         1 QH6       0.072200
     24 H3         -18.0910     3.7580    27.1440 h4         1 QH6       0.021100
     25 H4         -14.9050     5.9240    25.6160 h4         1 QH6       0.022100
     26 H5         -15.2140     8.1570    24.6020 ha         1 QH6       0.118000
     27 H6         -20.1220     7.8680    25.4350 ha         1 QH6       0.123000
     28 H7         -21.9790     3.0630    28.1970 ha         1 QH6       0.125000
     29 H8         -23.0350     6.8410    30.0310 ha         1 QH6       0.132000
     30 H9         -23.3150     5.6890    32.2210 ha         1 QH6       0.140000
     31 H10        -20.4490     4.6310    26.3540 hn         1 QH6       0.153000
     32 H11        -19.1690     9.8550    24.3300 ha         1 QH6       0.116000
     33 H12        -16.7180    10.0140    23.9140 ha         1 QH6       0.117000
     34 Cl         -22.1470     1.2580    30.4160 cl         1 QH6      -0.173000
@<TRIPOS>BOND
     1     1     5 ar  
     2     1     6 ar  
     3     2     3 1   
     4     2    13 1   
     5     2    22 1   
     6     2    23 1   
     7     3    16 2   
     8     3    17 1   
     9     4     5 ar  
    10     4    17 1   
    11     4    18 ar  
    12     5    24 1   
    13     6    21 ar  
    14     6    25 1   
    15     7    20 ar  
    16     7    21 ar  
    17     7    26 1   
    18     8    18 ar  
    19     8    19 ar  
    20     8    27 1   
    21     9    10 ar  
    22     9    13 ar  
    23     9    28 1   
    24    10    11 ar  
    25    10    34 1   
    26    11    12 1   
    27    11    15 ar  
    28    13    14 ar  
    29    14    15 ar  
    30    14    29 1   
    31    15    30 1   
    32    17    31 1   
    33    18    21 ar  
    34    19    20 ar  
    35    19    32 1   
    36    20    33 1   
@<TRIPOS>SUBSTRUCTURE
     1 QH6         1 TEMP              0 ****  ****    0 ROOT
