@<TRIPOS>MOLECULE
QH6
   34    36     1     0     0
SMALL
abcg2


@<TRIPOS>ATOM
      1 N1         -16.5560     4.7790    26.5470 nb         1 QH6      -0.651000
      2 C4         -22.3490     5.7430    27.5890 c3         1 QH6      -0.108100
      3 C5         -20.9210     6.2410    27.4020 c          1 QH6       0.598100
      4 C6         -18.7740     5.6930    26.3410 ca         1 QH6      -0.077000
      5 C7         -17.8980     4.7090    26.7280 ca         1 QH6       0.304900
      6 C8         -16.0700     5.8610    25.9810 ca         1 QH6       0.357900
      7 C10        -16.3000     8.0790    24.9110 ca         1 QH6      -0.086000
      8 C13        -19.0860     7.9120    25.2170 ca         1 QH6      -0.084000
      9 C15        -22.2420     3.6760    29.0170 ca         1 QH6      -0.078000
     10 C16        -22.3120     3.0350    30.2470 ca         1 QH6       0.076000
     11 C          -22.6190     3.7690    31.3840 ca         1 QH6       0.182000
     12 F          -22.6890     3.1500    32.5800 f          1 QH6      -0.161000
     13 C3         -22.4800     5.0450    28.9220 ca         1 QH6      -0.093300
     14 C2         -22.7910     5.7620    30.0770 ca         1 QH6      -0.058000
     15 C1         -22.8620     5.1280    31.3100 ca         1 QH6      -0.138000
     16 O          -20.4930     7.2210    27.9980 o          1 QH6      -0.570100
     17 N          -20.1650     5.4990    26.5500 ns         1 QH6      -0.164000
     18 C14        -18.2770     6.8600    25.7040 ca         1 QH6      -0.001000
     19 C12        -18.5090     8.9990    24.6100 ca         1 QH6      -0.093000
     20 C11        -17.1070     9.0910    24.4610 ca         1 QH6      -0.105000
     21 C9         -16.8660     6.9420    25.5350 ca         1 QH6      -0.090000
     22 H1         -23.0000     6.6160    27.5550 hc         1 QH6       0.072200
     23 H2         -22.6300     5.0690    26.7800 hc         1 QH6       0.072200
     24 H3         -18.2780     3.8140    27.2070 h4         1 QH6       0.021100
     25 H4         -14.9930     5.9150    25.8510 h4         1 QH6       0.022100
     26 H5         -15.2240     8.1300    24.7940 ha         1 QH6       0.118000
     27 H6         -20.1590     7.8540    25.3240 ha         1 QH6       0.123000
     28 H7         -22.0000     3.0980    28.1350 ha         1 QH6       0.125000
     29 H8         -22.9800     6.8260    30.0140 ha         1 QH6       0.132000
     30 H9         -23.1050     5.6710    32.2140 ha         1 QH6       0.140000
     31 H10        -20.5630     4.6400    26.2020 hn         1 QH6       0.153000
     32 H11        -19.1350     9.8000    24.2370 ha         1 QH6       0.116000
     33 H12        -16.6760     9.9610    23.9830 ha         1 QH6       0.117000
     34 CL         -22.0210     1.3250    30.3710 cl         1 QH6      -0.173000
@<TRIPOS>BOND
     1     1     5 ar  
     2     1     6 ar  
     3     2     3 1   
     4     2    13 1   
     5     2    22 1   
     6     2    23 1   
     7     3    16 2   
     8     3    17 1   
     9     4     5 ar  
    10     4    17 1   
    11     4    18 ar  
    12     5    24 1   
    13     6    21 ar  
    14     6    25 1   
    15     7    20 ar  
    16     7    21 ar  
    17     7    26 1   
    18     8    18 ar  
    19     8    19 ar  
    20     8    27 1   
    21     9    10 ar  
    22     9    13 ar  
    23     9    28 1   
    24    10    11 ar  
    25    10    34 1   
    26    11    12 1   
    27    11    15 ar  
    28    13    14 ar  
    29    14    15 ar  
    30    14    29 1   
    31    15    30 1   
    32    17    31 1   
    33    18    21 ar  
    34    19    20 ar  
    35    19    32 1   
    36    20    33 1   
@<TRIPOS>SUBSTRUCTURE
     1 QH6         1 TEMP              0 ****  ****    0 ROOT
