@<TRIPOS>MOLECULE
QH7
   17    17     1     0     0
SMALL
abcg2


@<TRIPOS>ATOM
      1 C10        -45.4360    -4.0970   -31.4700 ca         1 QH7       0.111000
      2 C13        -43.7150    -2.7880   -30.4420 ca         1 QH7      -0.143000
      3 C02        -44.5500    -2.6020   -29.3570 ca         1 QH7       0.204000
      4 C03        -45.8300    -3.1440   -29.2850 ca         1 QH7      -0.206600
      5 C04        -46.7010    -2.9940   -28.0760 c          1 QH7       0.610700
      6 C08        -46.2550    -3.9020   -30.3700 ca         1 QH7       0.205000
      7 C12        -44.1690    -3.5470   -31.5140 ca         1 QH7      -0.081000
      8 F01        -44.1060    -1.8740   -28.3110 f          1 QH7      -0.164000
      9 F09        -47.4830    -4.4410   -30.3660 f          1 QH7      -0.137000
     10 F11        -45.8990    -4.8280   -32.5010 f          1 QH7      -0.152000
     11 N05        -47.1180    -1.7550   -27.8250 ns         1 QH7      -0.363400
     12 O06        -47.8800    -1.5180   -26.6920 oh         1 QH7      -0.435100
     13 O07        -47.0240    -3.9420   -27.3540 o          1 QH7      -0.592100
     14 H1         -42.7280    -2.3490   -30.4440 ha         1 QH7       0.149000
     15 H2         -43.5490    -3.7120   -32.3840 ha         1 QH7       0.146000
     16 H3         -46.8830    -0.9200   -28.3390 hn         1 QH7       0.369500
     17 H4         -47.9760    -2.4130   -26.3080 ho         1 QH7       0.479000
@<TRIPOS>BOND
     1     1     6 ar  
     2     1     7 ar  
     3     1    10 1   
     4     2     3 ar  
     5     2     7 ar  
     6     2    14 1   
     7     3     4 ar  
     8     3     8 1   
     9     4     5 1   
    10     4     6 ar  
    11     5    11 1   
    12     5    13 2   
    13     6     9 1   
    14     7    15 1   
    15    11    12 1   
    16    11    16 1   
    17    12    17 1   
@<TRIPOS>SUBSTRUCTURE
     1 QH7         1 TEMP              0 ****  ****    0 ROOT
