@<TRIPOS>MOLECULE
QH7
   17    17     1     0     0
SMALL
No Charge or Current Charge


@<TRIPOS>ATOM
      1 C10        -45.3250    -4.3140   -31.4430 ca         1 QH7       0.111000
      2 C13        -43.8590    -2.5960   -30.5830 ca         1 QH7      -0.143000
      3 C02        -44.7260    -2.3900   -29.4970 ca         1 QH7       0.204000
      4 C03        -45.9240    -3.1450   -29.3570 ca         1 QH7      -0.206600
      5 C04        -46.8830    -2.9500   -28.1930 c          1 QH7       0.610700
      6 C08        -46.2020    -4.1160   -30.3580 ca         1 QH7       0.205000
      7 C12        -44.1540    -3.5580   -31.5590 ca         1 QH7      -0.081000
      8 F01        -44.3610    -1.4540   -28.5940 f          1 QH7      -0.164000
      9 F09        -47.3260    -4.8700   -30.3130 f          1 QH7      -0.137000
     10 F11        -45.6090    -5.2400   -32.3890 f          1 QH7      -0.152000
     11 N05        -46.6800    -1.8720   -27.3460 ns         1 QH7      -0.363400
     12 O06        -47.6380    -1.5570   -26.3070 oh         1 QH7      -0.435100
     13 O07        -47.8220    -3.7000   -27.9630 o          1 QH7      -0.592100
     14 H1         -42.9490    -2.0050   -30.6620 ha         1 QH7       0.149000
     15 H2         -43.4810    -3.7170   -32.3990 ha         1 QH7       0.146000
     16 H3         -45.9840    -1.1610   -27.5680 hn         1 QH7       0.369500
     17 H4         -48.3780    -2.1830   -26.5050 ho         1 QH7       0.479000
@<TRIPOS>BOND
     1     1     6 ar  
     2     1     7 ar  
     3     1    10 1   
     4     2     3 ar  
     5     2     7 ar  
     6     2    14 1   
     7     3     4 ar  
     8     3     8 1   
     9     4     5 1   
    10     4     6 ar  
    11     5    11 1   
    12     5    13 2   
    13     6     9 1   
    14     7    15 1   
    15    11    12 1   
    16    11    16 1   
    17    12    17 1   
@<TRIPOS>SUBSTRUCTURE
     1 QH7         1 TEMP              0 ****  ****    0 ROOT
