@<TRIPOS>MOLECULE
QH8
   60    63     1     0     0
SMALL
No Charge or Current Charge


@<TRIPOS>ATOM
      1 C1         -36.3340   -21.8010     5.7680 c          1 QH8       0.732000
      2 C10        -42.0830   -22.0060    10.8650 c3         1 QH8      -0.100100
      3 C11        -41.9860   -23.7620     6.2240 ca         1 QH8      -0.135500
      4 C12        -40.9920   -23.6290     5.2400 ca         1 QH8      -0.011000
      5 C13        -38.7540   -20.3010     4.7420 ca         1 QH8       0.271000
      6 C14        -39.2580   -20.1880     6.0520 ca         1 QH8      -0.129000
      7 C15        -39.6280   -18.9320     6.5720 ca         1 QH8       0.039800
      8 C16        -41.4010   -18.4680     9.4830 cc         1 QH8       0.258900
      9 C17        -40.1410   -18.8040    10.0140 cc         1 QH8      -0.231600
     10 C18        -39.8740   -18.8940    11.4680 c          1 QH8       0.741600
     11 C19        -39.2990   -19.0180     8.9450 cd         1 QH8      -0.083300
     12 C2         -37.4330   -22.4560     4.8680 c3         1 QH8       0.042800
     13 C20        -37.8440   -19.3520     8.9530 cx         1 QH8      -0.054400
     14 C21        -36.8340   -18.4390     9.6150 cx         1 QH8      -0.119400
     15 C22        -36.8620   -18.5600     8.1150 cx         1 QH8      -0.119400
     16 C23        -39.4770   -17.7800     5.7770 ca         1 QH8      -0.110000
     17 C24        -38.9540   -17.8800     4.4790 ca         1 QH8      -0.122000
     18 C25        -38.5950   -19.1380     3.9650 ca         1 QH8      -0.054000
     19 C3         -40.9420   -22.4700     4.4420 ca         1 QH8      -0.302500
     20 C4         -41.8930   -21.4470     4.6340 ca         1 QH8      -0.011000
     21 C5         -42.8790   -21.5830     5.6260 ca         1 QH8      -0.135500
     22 C6         -42.9320   -22.7390     6.4260 ca         1 QH8      -0.032300
     23 C7         -43.9950   -22.8780     7.5080 c3         1 QH8      -0.035100
     24 C8         -43.6360   -22.1360     8.8160 c3         1 QH8      -0.072400
     25 C9         -42.3270   -22.6270     9.4770 c3         1 QH8      -0.071400
     26 N1         -38.4320   -21.5600     4.2030 nh         1 QH8      -0.676300
     27 N2         -40.1650   -18.8240     7.8570 na         1 QH8       0.194000
     28 N3         -41.4600   -18.4570     8.1680 nd         1 QH8      -0.585800
     29 O1         -35.4990   -21.0750     5.2400 o          1 QH8      -0.713000
     30 O2         -40.0380   -21.2750     2.2270 o          1 QH8      -0.564500
     31 O3         -39.1440   -23.6010     2.8200 o          1 QH8      -0.564500
     32 O4         -38.7810   -19.2610    11.8690 o          1 QH8      -0.736000
     33 O5         -40.7820   -18.6090    12.2350 o          1 QH8      -0.736000
     34 O6         -36.3260   -22.0740     6.9620 o          1 QH8      -0.713000
     35 S1         -39.6310   -22.2750     3.2210 sy         1 QH8       1.130600
     36 H13        -41.1160   -22.3320    11.2660 hc         1 QH8       0.044367
     37 H11        -42.0790   -20.9130    10.8050 hc         1 QH8       0.044367
     38 H12        -42.8670   -22.3090    11.5690 hc         1 QH8       0.044367
     39 H14        -42.0130   -24.6580     6.8390 ha         1 QH8       0.109000
     40 H15        -40.2590   -24.4240     5.1100 ha         1 QH8       0.134500
     41 H16        -39.3890   -21.0810     6.6560 ha         1 QH8       0.133000
     42 H17        -42.3000   -18.2310    10.0370 h4         1 QH8       0.027100
     43 H2         -37.9670   -23.1890     5.4880 h1         1 QH8       0.038200
     44 H1         -36.8920   -23.0210     4.0980 h1         1 QH8       0.038200
     45 H19        -37.6600   -20.4220     9.0180 hc         1 QH8       0.079700
     46 H20        -36.0080   -18.9040    10.1480 hc         1 QH8       0.075950
     47 H21        -37.1960   -17.5130    10.0530 hc         1 QH8       0.075950
     48 H22        -36.0550   -19.1070     7.6330 hc         1 QH8       0.075950
     49 H23        -37.2270   -17.7030     7.5550 hc         1 QH8       0.075950
     50 H24        -39.7650   -16.8070     6.1710 ha         1 QH8       0.122000
     51 H25        -38.8330   -16.9890     3.8680 ha         1 QH8       0.097000
     52 H26        -38.2000   -19.2170     2.9560 ha         1 QH8       0.132000
     53 H3         -41.8600   -20.5390     4.0340 ha         1 QH8       0.134500
     54 H4         -43.6000   -20.7830     5.7770 ha         1 QH8       0.109000
     55 H5         -44.9520   -22.4900     7.1370 hc         1 QH8       0.033200
     56 H6         -44.1690   -23.9370     7.7360 hc         1 QH8       0.033200
     57 H7         -43.5550   -21.0610     8.6110 hc         1 QH8       0.046200
     58 H8         -44.4650   -22.2610     9.5240 hc         1 QH8       0.046200
     59 H9         -42.3550   -23.7190     9.5770 hc         1 QH8       0.031200
     60 H10        -41.4770   -22.3850     8.8270 hc         1 QH8       0.031200
@<TRIPOS>BOND
     1     1    12 1   
     2     1    29 1   
     3     1    34 1   
     4     2    25 1   
     5     2    36 1   
     6     2    37 1   
     7     2    38 1   
     8     3     4 ar  
     9     3    22 ar  
    10     3    39 1   
    11     4    19 ar  
    12     4    40 1   
    13     5     6 ar  
    14     5    18 ar  
    15     5    26 1   
    16     6     7 ar  
    17     6    41 1   
    18     7    16 ar  
    19     7    27 1   
    20     8     9 1   
    21     8    28 2   
    22     8    42 1   
    23     9    10 1   
    24     9    11 2   
    25    10    32 1   
    26    10    33 1   
    27    11    13 1   
    28    11    27 1   
    29    12    26 1   
    30    12    43 1   
    31    12    44 1   
    32    13    14 1   
    33    13    15 1   
    34    13    45 1   
    35    14    15 1   
    36    14    46 1   
    37    14    47 1   
    38    15    48 1   
    39    15    49 1   
    40    16    17 ar  
    41    16    50 1   
    42    17    18 ar  
    43    17    51 1   
    44    18    52 1   
    45    19    20 ar  
    46    19    35 1   
    47    20    21 ar  
    48    20    53 1   
    49    21    22 ar  
    50    21    54 1   
    51    22    23 1   
    52    23    24 1   
    53    23    55 1   
    54    23    56 1   
    55    24    25 1   
    56    24    57 1   
    57    24    58 1   
    58    25    59 1   
    59    25    60 1   
    60    26    35 1   
    61    27    28 1   
    62    30    35 2   
    63    31    35 2   
@<TRIPOS>SUBSTRUCTURE
     1 QH8         1 TEMP              0 ****  ****    0 ROOT
