@<TRIPOS>MOLECULE
QH8
   60    63     1     0     0
SMALL
bcc


@<TRIPOS>ATOM
      1 C1         -36.2670   -21.7490     5.3200 c          1 QH8       0.942600
      2 C10        -41.3110   -22.6110    10.9360 c3         1 QH8      -0.100100
      3 C11        -41.8270   -23.9430     6.2630 ca         1 QH8      -0.153500
      4 C12        -40.9380   -23.6770     5.2350 ca         1 QH8      -0.029000
      5 C13        -38.6880   -20.0000     4.6390 ca         1 QH8       0.132600
      6 C14        -39.2550   -19.7050     5.8730 ca         1 QH8      -0.147000
      7 C15        -39.4370   -18.3800     6.2470 ca         1 QH8       0.039800
      8 C16        -41.2530   -16.9410     8.7860 cc         1 QH8       0.324200
      9 C17        -40.5970   -17.8840     9.6010 cc         1 QH8      -0.296900
     10 C18        -40.7820   -18.0170    11.0880 c          1 QH8       0.952200
     11 C19        -39.7910   -18.5880     8.7230 cd         1 QH8      -0.032600
     12 C2         -37.7390   -22.2050     5.1550 c3         1 QH8       0.042800
     13 C20        -38.8150   -19.6710     8.9540 cx         1 QH8      -0.054400
     14 C21        -37.6990   -19.4750     9.9280 cx         1 QH8      -0.119400
     15 C22        -37.3970   -19.5400     8.4670 cx         1 QH8      -0.119400
     16 C23        -39.0750   -17.3540     5.3820 ca         1 QH8      -0.128000
     17 C24        -38.5240   -17.6610     4.1470 ca         1 QH8      -0.140000
     18 C25        -38.3190   -18.9790     3.7740 ca         1 QH8      -0.072000
     19 C3         -40.9750   -22.4360     4.6110 ca         1 QH8      -0.302500
     20 C4         -41.9040   -21.4750     4.9940 ca         1 QH8      -0.029000
     21 C5         -42.7790   -21.7570     6.0280 ca         1 QH8      -0.153500
     22 C6         -42.7470   -22.9860     6.6860 ca         1 QH8      -0.032300
     23 C7         -43.6450   -23.2430     7.8600 c3         1 QH8      -0.035100
     24 C8         -43.1080   -22.6150     9.1510 c3         1 QH8      -0.072400
     25 C9         -41.7620   -23.1720     9.5950 c3         1 QH8      -0.071400
     26 N1         -38.4920   -21.3530     4.2380 nh         1 QH8      -0.537900
     27 N2         -40.0220   -18.0530     7.4890 na         1 QH8       0.143300
     28 N3         -40.9090   -17.0480     7.5240 nd         1 QH8      -0.585800
     29 O1         -35.7670   -21.0780     4.4060 o          1 QH8      -0.818300
     30 O2         -40.2930   -21.0090     2.5270 o          1 QH8      -0.635300
     31 O3         -39.2570   -23.2760     2.8240 o          1 QH8      -0.635300
     32 O4         -40.3080   -19.0260    11.6480 o          1 QH8      -0.841300
     33 O5         -41.4140   -17.0880    11.6310 o          1 QH8      -0.841300
     34 O6         -35.7230   -22.1640     6.3620 o          1 QH8      -0.818300
     35 S1         -39.7540   -22.0380     3.3990 sy         1 QH8       1.272200
     36 H13        -40.3510   -23.0320    11.2370 hc         1 QH8       0.044367
     37 H11        -41.1980   -21.5270    10.8970 hc         1 QH8       0.044367
     38 H12        -42.0330   -22.8400    11.7220 hc         1 QH8       0.044367
     39 H14        -41.7990   -24.9100     6.7500 ha         1 QH8       0.127000
     40 H15        -40.2270   -24.4330     4.9300 ha         1 QH8       0.152500
     41 H16        -39.5650   -20.5030     6.5330 ha         1 QH8       0.151000
     42 H17        -41.9750   -16.1970     9.0880 h4         1 QH8       0.027100
     43 H2         -38.2260   -22.2730     6.1330 h1         1 QH8       0.038200
     44 H1         -37.7160   -23.2180     4.7480 h1         1 QH8       0.038200
     45 H19        -39.2310   -20.6740     8.9150 hc         1 QH8       0.079700
     46 H20        -37.4310   -20.3150    10.5550 hc         1 QH8       0.075950
     47 H21        -37.6280   -18.5140    10.4190 hc         1 QH8       0.075950
     48 H22        -36.9230   -20.4250     8.0630 hc         1 QH8       0.075950
     49 H23        -37.1120   -18.6200     7.9720 hc         1 QH8       0.075950
     50 H24        -39.2180   -16.3230     5.6750 ha         1 QH8       0.140000
     51 H25        -38.2370   -16.8600     3.4790 ha         1 QH8       0.115000
     52 H26        -37.8690   -19.2220     2.8220 ha         1 QH8       0.150000
     53 H3         -41.9480   -20.5150     4.4960 ha         1 QH8       0.152500
     54 H4         -43.5000   -21.0060     6.3290 ha         1 QH8       0.127000
     55 H5         -44.6400   -22.8400     7.6550 hc         1 QH8       0.033200
     56 H6         -43.7630   -24.3200     8.0050 hc         1 QH8       0.033200
     57 H7         -43.0330   -21.5300     9.0240 hc         1 QH8       0.046200
     58 H8         -43.8460   -22.7800     9.9410 hc         1 QH8       0.046200
     59 H9         -41.8270   -24.2630     9.6540 hc         1 QH8       0.031200
     60 H10        -41.0020   -22.9550     8.8380 hc         1 QH8       0.031200
@<TRIPOS>BOND
     1     1    12 1   
     2     1    29 1   
     3     1    34 1   
     4     2    25 1   
     5     2    36 1   
     6     2    37 1   
     7     2    38 1   
     8     3     4 ar  
     9     3    22 ar  
    10     3    39 1   
    11     4    19 ar  
    12     4    40 1   
    13     5     6 ar  
    14     5    18 ar  
    15     5    26 1   
    16     6     7 ar  
    17     6    41 1   
    18     7    16 ar  
    19     7    27 1   
    20     8     9 1   
    21     8    28 2   
    22     8    42 1   
    23     9    10 1   
    24     9    11 2   
    25    10    32 1   
    26    10    33 1   
    27    11    13 1   
    28    11    27 1   
    29    12    26 1   
    30    12    43 1   
    31    12    44 1   
    32    13    14 1   
    33    13    15 1   
    34    13    45 1   
    35    14    15 1   
    36    14    46 1   
    37    14    47 1   
    38    15    48 1   
    39    15    49 1   
    40    16    17 ar  
    41    16    50 1   
    42    17    18 ar  
    43    17    51 1   
    44    18    52 1   
    45    19    20 ar  
    46    19    35 1   
    47    20    21 ar  
    48    20    53 1   
    49    21    22 ar  
    50    21    54 1   
    51    22    23 1   
    52    23    24 1   
    53    23    55 1   
    54    23    56 1   
    55    24    25 1   
    56    24    57 1   
    57    24    58 1   
    58    25    59 1   
    59    25    60 1   
    60    26    35 1   
    61    27    28 1   
    62    30    35 2   
    63    31    35 2   
@<TRIPOS>SUBSTRUCTURE
     1 QH8         1 TEMP              0 ****  ****    0 ROOT
