@<TRIPOS>MOLECULE
QH9
   55    59     1     0     0
SMALL
No Charge or Current Charge


@<TRIPOS>ATOM
      1 N1          -4.8980    18.9690   -20.7340 nb         1 QH9      -0.671000
      2 N3          -2.3180    15.7050   -12.0840 nb         1 QH9      -0.678000
      3 C4          -4.7760    18.1140   -18.4630 ca         1 QH9      -0.127000
      4 C5          -4.2630    18.8600   -19.5430 ca         1 QH9       0.369900
      5 C6          -6.5440    16.6980   -17.5680 ca         1 QH9      -0.214000
      6 C7          -5.8540    16.6060   -16.3370 ca         1 QH9       0.170100
      7 C8          -4.6110    17.2680   -16.1770 ca         1 QH9      -0.029800
      8 C10         -3.8580    17.1930   -14.9240 cc         1 QH9      -0.069400
      9 C13         -3.3860    18.3230   -14.2810 cd         1 QH9      -0.137100
     10 C15         -3.1830    13.7950   -13.3790 cp         1 QH9      -0.129000
     11 C17         -3.3610    12.3120   -13.5180 cp         1 QH9      -0.070000
     12 C20         -3.7860     9.5790   -13.8090 ca         1 QH9       0.355900
     13 C21         -4.4780    11.7560   -14.1960 ca         1 QH9       0.350900
     14 C24         -1.5870     7.6390   -14.6600 c3         1 QH9       0.092300
     15 C26          1.9860     6.9880   -12.8620 c1         1 QH9      -0.218000
     16 C1          -6.0800    18.3250   -20.8790 ca         1 QH9       0.331900
     17 C2          -6.6640    17.5590   -19.8560 ca         1 QH9      -0.159000
     18 C3          -6.0030    17.4480   -18.6230 ca         1 QH9       0.030000
     19 C9          -4.0840    18.0260   -17.2430 ca         1 QH9      -0.054000
     20 C11         -3.4860    16.0600   -14.1330 ca         1 QH9      -0.109800
     21 C12         -2.8110    16.5250   -13.0290 ca         1 QH9       0.372500
     22 N2          -2.7350    17.9060   -13.0900 na         1 QH9      -0.328400
     23 C14         -3.6850    14.6930   -14.3550 ca         1 QH9      -0.001000
     24 C16         -2.5080    14.3710   -12.2620 ca         1 QH9       0.372900
     25 C18         -2.4260    11.3960   -12.9760 ca         1 QH9      -0.029000
     26 C19         -2.6260    10.0110   -13.1430 ca         1 QH9      -0.189600
     27 N4          -4.6970    10.4280   -14.3330 nb         1 QH9      -0.668000
     28 N5          -1.4410     7.7850   -13.1900 n          1 QH9      -0.409800
     29 O1          -1.1160     9.2850   -11.4780 o          1 QH9      -0.589100
     30 C23         -0.6610     6.7270   -12.5050 c3         1 QH9       0.182100
     31 C25          0.7940     6.8610   -12.6870 c1         1 QH9      -0.173100
     32 O2          -6.3760    15.9000   -15.2670 os         1 QH9      -0.340100
     33 C27         -7.6200    15.1830   -15.3430 c3         1 QH9       0.143900
     34 H1          -3.3140    19.3880   -19.4540 h4         1 QH9       0.017100
     35 H2          -7.4980    16.2010   -17.7160 ha         1 QH9       0.123000
     36 H3          -3.4750    19.3700   -14.5650 h4         1 QH9       0.220000
     37 H4          -4.0200     8.5210   -13.9080 h4         1 QH9       0.025100
     38 H5          -5.2420    12.4030   -14.6250 h4         1 QH9       0.021100
     39 H6          -1.5360     8.6180   -15.1530 h1         1 QH9       0.045367
     40 H7          -0.7790     7.0140   -15.0630 h1         1 QH9       0.045367
     41 H8          -2.5450     7.1590   -14.8940 h1         1 QH9       0.045367
     42 H9           3.0390     7.1140   -13.0160 ha         1 QH9       0.255000
     43 H10         -6.5720    18.4260   -21.8450 h4         1 QH9       0.019100
     44 H11         -7.6150    17.0640   -20.0280 ha         1 QH9       0.122000
     45 H12         -3.1310    18.5350   -17.1230 ha         1 QH9       0.119000
     46 H13         -2.2900    18.4960   -12.3980 hn         1 QH9       0.366000
     47 H14         -4.1930    14.3450   -15.2500 ha         1 QH9       0.127000
     48 H15         -2.1120    13.7350   -11.4710 h4         1 QH9       0.027100
     49 H16         -1.5420    11.7550   -12.4540 ha         1 QH9       0.137000
     50 H17         -0.8900     6.7360   -11.4310 h1         1 QH9       0.076700
     51 H18         -0.9750     5.7480   -12.8910 h1         1 QH9       0.076700
     52 H19         -7.8330    14.6920   -14.3850 h1         1 QH9       0.046033
     53 H20         -8.4510    15.8640   -15.5670 h1         1 QH9       0.046033
     54 H21         -7.5770    14.4080   -16.1190 h1         1 QH9       0.046033
     55 C22         -1.6540     9.0300   -12.5490 c          1 QH9       0.617700
@<TRIPOS>BOND
     1     1     4 ar  
     2     1    16 ar  
     3     2    21 ar  
     4     2    24 ar  
     5     3     4 ar  
     6     3    18 ar  
     7     3    19 ar  
     8     4    34 1   
     9     5     6 ar  
    10     5    18 ar  
    11     5    35 1   
    12     6     7 ar  
    13     6    32 1   
    14     7     8 1   
    15     7    19 ar  
    16     8     9 2   
    17     8    20 1   
    18     9    22 1   
    19     9    36 1   
    20    10    11 1   
    21    10    23 ar  
    22    10    24 ar  
    23    11    13 ar  
    24    11    25 ar  
    25    12    26 ar  
    26    12    27 ar  
    27    12    37 1   
    28    13    27 ar  
    29    13    38 1   
    30    14    28 1   
    31    14    39 1   
    32    14    40 1   
    33    14    41 1   
    34    15    31 3   
    35    15    42 1   
    36    16    17 ar  
    37    16    43 1   
    38    17    18 ar  
    39    17    44 1   
    40    19    45 1   
    41    20    21 ar  
    42    20    23 ar  
    43    21    22 1   
    44    22    46 1   
    45    23    47 1   
    46    24    48 1   
    47    25    26 ar  
    48    25    49 1   
    49    26    55 1   
    50    28    30 1   
    51    28    55 1   
    52    29    55 2   
    53    30    31 1   
    54    30    50 1   
    55    30    51 1   
    56    32    33 1   
    57    33    52 1   
    58    33    53 1   
    59    33    54 1   
@<TRIPOS>SUBSTRUCTURE
     1 QH9         1 TEMP              0 ****  ****    0 ROOT
