@<TRIPOS>MOLECULE
QH9
   55    59     1     0     0
SMALL
abcg2


@<TRIPOS>ATOM
      1 N1          -4.9960    19.2260   -20.6430 nb         1 QH9      -0.671000
      2 N3          -2.2130    15.5700   -12.1630 nb         1 QH9      -0.678000
      3 C4          -4.8070    18.2020   -18.4670 ca         1 QH9      -0.127000
      4 C5          -4.3590    19.0510   -19.5030 ca         1 QH9       0.369900
      5 C6          -6.4920    16.6380   -17.6420 ca         1 QH9      -0.214000
      6 C7          -5.7930    16.5170   -16.4620 ca         1 QH9       0.170100
      7 C8          -4.5560    17.2170   -16.2520 ca         1 QH9      -0.029800
      8 C10         -3.8150    17.0990   -14.9910 cc         1 QH9      -0.069400
      9 C13         -3.2380    18.1540   -14.3210 cd         1 QH9      -0.137100
     10 C15         -3.1940    13.7060   -13.3650 cp         1 QH9      -0.129000
     11 C17         -3.4300    12.2500   -13.4140 cp         1 QH9      -0.070000
     12 C20         -3.9950     9.5660   -13.5460 ca         1 QH9       0.355900
     13 C21         -4.6340    11.7320   -13.9080 ca         1 QH9       0.350900
     14 C24         -1.6440     7.7730   -14.6190 c3         1 QH9       0.092300
     15 C26          1.9910     7.2900   -12.9480 c1         1 QH9      -0.218000
     16 C1          -6.1540    18.5360   -20.8250 ca         1 QH9       0.331900
     17 C2          -6.6860    17.6800   -19.8960 ca         1 QH9      -0.159000
     18 C3          -6.0170    17.4860   -18.6660 ca         1 QH9       0.030000
     19 C9          -4.0970    18.0360   -17.2570 ca         1 QH9      -0.054000
     20 C11         -3.4880    15.9200   -14.2280 ca         1 QH9      -0.109800
     21 C12         -2.7150    16.3490   -13.1150 ca         1 QH9       0.372500
     22 N2          -2.5800    17.7080   -13.2000 na         1 QH9      -0.328400
     23 C14         -3.7070    14.5520   -14.3490 ca         1 QH9      -0.001000
     24 C16         -2.4650    14.2690   -12.2980 ca         1 QH9       0.372900
     25 C18         -2.4910    11.3280   -12.9540 ca         1 QH9      -0.029000
     26 C19         -2.7680     9.9680   -13.0250 ca         1 QH9      -0.189600
     27 N4          -4.9160    10.4320   -13.9730 nb         1 QH9      -0.668000
     28 N5          -1.4400     7.9150   -13.1810 n          1 QH9      -0.409800
     29 O1          -1.3810     9.1650   -11.2900 o          1 QH9      -0.589100
     30 C23         -0.6130     6.8850   -12.5540 c3         1 QH9       0.182100
     31 C25          0.8190     7.1030   -12.7640 c1         1 QH9      -0.173100
     32 O2          -6.2130    15.7730   -15.4170 os         1 QH9      -0.340100
     33 C27         -7.4040    14.9990   -15.5540 c3         1 QH9       0.143900
     34 H1          -3.4330    19.6030   -19.3630 h4         1 QH9       0.017100
     35 H2          -7.4210    16.1100   -17.7940 ha         1 QH9       0.123000
     36 H3          -3.2660    19.2060   -14.5570 h4         1 QH9       0.220000
     37 H4          -4.2510     8.5140   -13.6050 h4         1 QH9       0.025100
     38 H5          -5.4110    12.4070   -14.2490 h4         1 QH9       0.021100
     39 H6          -2.0110     8.7000   -15.0470 h1         1 QH9       0.045367
     40 H7          -0.6900     7.5320   -15.0900 h1         1 QH9       0.045367
     41 H8          -2.3540     6.9710   -14.8310 h1         1 QH9       0.045367
     42 H9           3.0300     7.4570   -13.1100 ha         1 QH9       0.255000
     43 H10         -6.6570    18.6990   -21.7720 h4         1 QH9       0.019100
     44 H11         -7.6130    17.1590   -20.0990 ha         1 QH9       0.122000
     45 H12         -3.1590    18.5620   -17.1260 ha         1 QH9       0.119000
     46 H13         -2.1030    18.2900   -12.5290 hn         1 QH9       0.366000
     47 H14         -4.2550    14.1500   -15.1890 ha         1 QH9       0.127000
     48 H15         -2.0850    13.6280   -11.5110 h4         1 QH9       0.027100
     49 H16         -1.5410    11.6570   -12.5550 ha         1 QH9       0.137000
     50 H17         -0.8310     6.8700   -11.4870 h1         1 QH9       0.076700
     51 H18         -0.9040     5.9200   -12.9730 h1         1 QH9       0.076700
     52 H19         -7.5220    14.4700   -14.6130 h1         1 QH9       0.046033
     53 H20         -8.2700    15.6420   -15.7290 h1         1 QH9       0.046033
     54 H21         -7.3100    14.2820   -16.3730 h1         1 QH9       0.046033
     55 C22         -1.7970     8.9880   -12.4380 c          1 QH9       0.617700
@<TRIPOS>BOND
     1     1     4 ar  
     2     1    16 ar  
     3     2    21 ar  
     4     2    24 ar  
     5     3     4 ar  
     6     3    18 ar  
     7     3    19 ar  
     8     4    34 1   
     9     5     6 ar  
    10     5    18 ar  
    11     5    35 1   
    12     6     7 ar  
    13     6    32 1   
    14     7     8 1   
    15     7    19 ar  
    16     8     9 2   
    17     8    20 1   
    18     9    22 1   
    19     9    36 1   
    20    10    11 1   
    21    10    23 ar  
    22    10    24 ar  
    23    11    13 ar  
    24    11    25 ar  
    25    12    26 ar  
    26    12    27 ar  
    27    12    37 1   
    28    13    27 ar  
    29    13    38 1   
    30    14    28 1   
    31    14    39 1   
    32    14    40 1   
    33    14    41 1   
    34    15    31 3   
    35    15    42 1   
    36    16    17 ar  
    37    16    43 1   
    38    17    18 ar  
    39    17    44 1   
    40    19    45 1   
    41    20    21 ar  
    42    20    23 ar  
    43    21    22 1   
    44    22    46 1   
    45    23    47 1   
    46    24    48 1   
    47    25    26 ar  
    48    25    49 1   
    49    26    55 1   
    50    28    30 1   
    51    28    55 1   
    52    29    55 2   
    53    30    31 1   
    54    30    50 1   
    55    30    51 1   
    56    32    33 1   
    57    33    52 1   
    58    33    53 1   
    59    33    54 1   
@<TRIPOS>SUBSTRUCTURE
     1 QH9         1 TEMP              0 ****  ****    0 ROOT
