@<TRIPOS>MOLECULE
QHA
   88    92     1     0     0
SMALL
No Charge or Current Charge


@<TRIPOS>ATOM
      1 CAB         19.8780    15.2650     4.5090 c3         1 QHA       0.226100
      2 NBA         19.7010    16.3340     3.5160 nu         1 QHA      -0.890400
      3 CBL         18.6010    17.0980     3.3600 cc         1 QHA       0.795500
      4 NAZ         18.4710    17.9100     2.3160 nd         1 QHA      -0.669100
      5 OBG         17.5720    17.0510     4.2840 os         1 QHA      -0.313700
      6 CBN         16.7140    17.9460     3.7330 ca         1 QHA      -0.018900
      7 CAS         15.4640    18.3290     4.2320 ca         1 QHA       0.023000
      8 CBM         17.2320    18.4570     2.5770 ca         1 QHA       0.164400
      9 CAR         16.5250    19.4010     1.8240 ca         1 QHA      -0.099000
     10 CAQ         15.2600    19.8190     2.2890 ca         1 QHA      -0.020000
     11 CBK         14.7290    19.2900     3.4970 ca         1 QHA      -0.332500
     12 SBW         13.1180    19.8260     4.0950 sy         1 QHA       1.191600
     13 OAF         12.5440    18.7920     4.9630 o          1 QHA      -0.543500
     14 OAG         12.3370    20.3800     2.9860 o          1 QHA      -0.543500
     15 NBT         13.5110    21.1440     5.1110 n3         1 QHA      -0.743500
     16 CAX         14.3160    20.7440     6.3000 c3         1 QHA       0.202800
     17 CBO         14.3480    21.7520     7.4780 c3         1 QHA      -0.062700
     18 CAD         15.3440    21.2980     8.5700 c3         1 QHA      -0.091100
     19 CAC         12.9410    21.9760     8.0800 c3         1 QHA      -0.091100
     20 CAY         14.0690    22.3290     4.3880 c3         1 QHA       0.212800
     21 CBP         13.3940    23.7000     4.7140 c3         1 QHA       0.157300
     22 OAH         14.2100    24.7770     4.2110 oh         1 QHA      -0.670000
     23 CBQ         11.9280    23.8530     4.1920 c3         1 QHA       0.097700
     24 CAW         11.7770    23.7910     2.6460 c3         1 QHA      -0.044100
     25 CBJ         10.3210    23.8690     2.1950 ca         1 QHA      -0.088300
     26 CAO          9.7630    25.0940     1.7760 ca         1 QHA      -0.104000
     27 CAM          8.4180    25.1590     1.3750 ca         1 QHA      -0.118000
     28 CAL          7.6240    24.0000     1.3810 ca         1 QHA      -0.106000
     29 CAN          8.1780    22.7750     1.7890 ca         1 QHA      -0.118000
     30 CAP          9.5200    22.7110     2.2000 ca         1 QHA      -0.104000
     31 NBB         11.3190    25.1050     4.6740 ns         1 QHA      -0.499900
     32 CBI         10.8560    25.3280     5.9360 c          1 QHA       0.631100
     33 OAE         10.9300    24.5390     6.8620 o          1 QHA      -0.539000
     34 OBF         10.2980    26.5730     5.9670 os         1 QHA      -0.463100
     35 CBS          9.6740    26.9330     7.2290 c5         1 QHA       0.163300
     36 CBV          8.1850    26.4250     7.2860 c5         1 QHA      -0.177700
     37 CAV          9.5580    28.4900     7.2950 c5         1 QHA       0.152600
     38 OBE          8.1500    28.7820     7.3960 os         1 QHA      -0.468000
     39 CBU          7.5110    27.6290     7.9720 c5         1 QHA       0.372300
     40 OBD          6.1580    27.5930     7.5050 os         1 QHA      -0.429000
     41 CAU          6.2170    27.3350     6.0850 c5         1 QHA       0.153600
     42 CBR          7.4640    26.4120     5.8800 c5         1 QHA       0.154300
     43 OBC          6.9400    25.0810     5.6290 os         1 QHA      -0.450000
     44 CAT          7.8750    24.0300     5.3130 c3         1 QHA       0.171800
     45 CBH          7.1080    22.7490     5.0160 c2         1 QHA       0.098300
     46 FAI          7.7080    21.6500     5.4880 f          1 QHA      -0.191500
     47 CAA          5.9500    22.6760     4.3430 c2         1 QHA      -0.344000
     48 HAB1        20.8570    14.7830     4.3880 h1         1 QHA       0.050367
     49 HAB2        19.8160    15.6720     5.5270 h1         1 QHA       0.050367
     50 HAB3        19.0990    14.5000     4.3940 h1         1 QHA       0.050367
     51 HAS         15.0850    17.8970     5.1570 ha         1 QHA       0.154000
     52 HAR         16.9420    19.7990     0.9030 ha         1 QHA       0.139000
     53 HAQ         14.6980    20.5480     1.7080 ha         1 QHA       0.131000
     54 HAX1        13.9350    19.8030     6.7190 h1         1 QHA       0.050200
     55 HAX2        15.3500    20.5460     5.9880 h1         1 QHA       0.050200
     56 HAY1        15.1400    22.4210     4.6140 h1         1 QHA       0.065700
     57 HAY2        14.0270    22.1950     3.3010 h1         1 QHA       0.065700
     58 HBO         14.7210    22.7110     7.1050 hc         1 QHA       0.045700
     59 HAD1        15.3900    22.0340     9.3820 hc         1 QHA       0.040533
     60 HAD2        15.0440    20.3340     8.9980 hc         1 QHA       0.040533
     61 HAD3        16.3530    21.1910     8.1550 hc         1 QHA       0.040533
     62 HAC1        12.9630    22.7720     8.8340 hc         1 QHA       0.040533
     63 HAC2        12.2240    22.2630     7.3030 hc         1 QHA       0.040533
     64 HAC3        12.5700    21.0600     8.5550 hc         1 QHA       0.040533
     65 HBP         13.3460    23.7840     5.8060 h1         1 QHA       0.053700
     66 HAH         13.7510    25.6110     4.4540 ho         1 QHA       0.450000
     67 HBQ         11.3490    23.0190     4.6130 h1         1 QHA       0.098700
     68 HAW1        12.3550    24.6040     2.1910 hc         1 QHA       0.070200
     69 HAW2        12.2170    22.8670     2.2610 hc         1 QHA       0.070200
     70 HBB         11.1450    25.8490     4.0120 hn         1 QHA       0.322500
     71 HAO         10.3700    25.9970     1.7630 ha         1 QHA       0.118500
     72 HAP          9.9380    21.7590     2.5220 ha         1 QHA       0.118500
     73 HAM          7.9910    26.1080     1.0580 ha         1 QHA       0.114000
     74 HAL          6.5830    24.0500     1.0700 ha         1 QHA       0.116000
     75 HAN          7.5650    21.8760     1.7950 ha         1 QHA       0.114000
     76 HBS         10.2750    26.5790     8.0790 h1         1 QHA       0.087700
     77 HBV          8.0590    25.5010     7.8600 hc         1 QHA       0.088700
     78 HAV1        10.0690    28.8840     8.1840 h1         1 QHA       0.064700
     79 HAV2         9.9720    28.9870     6.4070 h1         1 QHA       0.064700
     80 HBU          7.5880    27.6190     9.0680 h2         1 QHA       0.088700
     81 HBR          8.0750    26.7470     5.0310 h1         1 QHA       0.072700
     82 HAU1         5.2790    26.8740     5.7500 h1         1 QHA       0.070200
     83 HAU2         6.3440    28.2880     5.5530 h1         1 QHA       0.070200
     84 HAT1         8.4810    24.3020     4.4390 h1         1 QHA       0.054200
     85 HAT2         8.5510    23.8500     6.1570 h1         1 QHA       0.054200
     86 HAA1         5.4580    21.7210     4.1630 ha         1 QHA       0.188000
     87 HAA2         5.4630    23.5680     3.9530 ha         1 QHA       0.188000
     88 HBA         20.3200    16.3790     2.7100 hn         1 QHA       0.526000
@<TRIPOS>BOND
     1     1     2 1   
     2     1    48 1   
     3     1    49 1   
     4     1    50 1   
     5     2     3 1   
     6     2    88 1   
     7     3     4 2   
     8     3     5 1   
     9     4     8 1   
    10     5     6 1   
    11     6     7 ar  
    12     6     8 ar  
    13     7    11 ar  
    14     7    51 1   
    15     8     9 ar  
    16     9    10 ar  
    17     9    52 1   
    18    10    11 ar  
    19    10    53 1   
    20    11    12 1   
    21    12    13 2   
    22    12    14 2   
    23    12    15 1   
    24    15    16 1   
    25    15    20 1   
    26    16    17 1   
    27    16    54 1   
    28    16    55 1   
    29    17    18 1   
    30    17    19 1   
    31    17    58 1   
    32    18    59 1   
    33    18    60 1   
    34    18    61 1   
    35    19    62 1   
    36    19    63 1   
    37    19    64 1   
    38    20    21 1   
    39    20    56 1   
    40    20    57 1   
    41    21    22 1   
    42    21    23 1   
    43    21    65 1   
    44    22    66 1   
    45    23    24 1   
    46    23    31 1   
    47    23    67 1   
    48    24    25 1   
    49    24    68 1   
    50    24    69 1   
    51    25    26 ar  
    52    25    30 ar  
    53    26    27 ar  
    54    26    71 1   
    55    27    28 ar  
    56    27    73 1   
    57    28    29 ar  
    58    28    74 1   
    59    29    30 ar  
    60    29    75 1   
    61    30    72 1   
    62    31    32 1   
    63    31    70 1   
    64    32    33 2   
    65    32    34 1   
    66    34    35 1   
    67    35    36 1   
    68    35    37 1   
    69    35    76 1   
    70    36    39 1   
    71    36    42 1   
    72    36    77 1   
    73    37    38 1   
    74    37    78 1   
    75    37    79 1   
    76    38    39 1   
    77    39    40 1   
    78    39    80 1   
    79    40    41 1   
    80    41    42 1   
    81    41    82 1   
    82    41    83 1   
    83    42    43 1   
    84    42    81 1   
    85    43    44 1   
    86    44    45 1   
    87    44    84 1   
    88    44    85 1   
    89    45    46 1   
    90    45    47 2   
    91    47    86 1   
    92    47    87 1   
@<TRIPOS>SUBSTRUCTURE
     1 QHA         1 TEMP              0 ****  ****    0 ROOT
