@<TRIPOS>MOLECULE
QHA
   88    92     1     0     0
SMALL
abcg2


@<TRIPOS>ATOM
      1 CAB         18.8730    14.6580     4.5340 c3         1 QHA       0.226100
      2 NBA         18.9790    15.5410     3.3810 nu         1 QHA      -0.890400
      3 CBL         18.1820    16.5810     3.1660 cc         1 QHA       0.795500
      4 NAZ         18.2270    17.4510     2.1830 nd         1 QHA      -0.669100
      5 OBG         17.1730    16.7800     4.0750 os         1 QHA      -0.313700
      6 CBN         16.5140    17.8990     3.6070 ca         1 QHA      -0.018900
      7 CAS         15.4190    18.5230     4.1460 ca         1 QHA       0.023000
      8 CBM         17.1680    18.3080     2.4360 ca         1 QHA       0.164400
      9 CAR         16.6930    19.4190     1.7440 ca         1 QHA      -0.099000
     10 CAQ         15.5810    20.0780     2.2580 ca         1 QHA      -0.020000
     11 CBK         14.9580    19.6390     3.4330 ca         1 QHA      -0.332500
     12 SBW         13.5950    20.5590     4.0750 sy         1 QHA       1.191600
     13 OAF         12.9080    19.7160     5.0260 o          1 QHA      -0.543500
     14 OAG         12.8540    21.1100     2.9640 o          1 QHA      -0.543500
     15 NBT         14.2170    21.8320     4.9200 n3         1 QHA      -0.743500
     16 CAX         15.0870    21.4580     6.0550 c3         1 QHA       0.202800
     17 CBO         14.9470    22.3630     7.2800 c3         1 QHA      -0.062700
     18 CAD         15.9670    21.9190     8.3300 c3         1 QHA      -0.091100
     19 CAC         13.5280    22.3400     7.8400 c3         1 QHA      -0.091100
     20 CAY         14.6190    23.0290     4.1680 c3         1 QHA       0.212800
     21 CBP         13.8520    24.2840     4.5890 c3         1 QHA       0.157300
     22 OAH         14.4840    25.3600     3.8940 oh         1 QHA      -0.670000
     23 CBQ         12.3400    24.2220     4.3210 c3         1 QHA       0.097700
     24 CAW         11.9630    24.2340     2.8340 c3         1 QHA      -0.044100
     25 CBJ         10.4810    24.0540     2.6230 ca         1 QHA      -0.088300
     26 CAO          9.6900    25.1030     2.1550 ca         1 QHA      -0.104000
     27 CAM          8.3200    24.9400     1.9700 ca         1 QHA      -0.118000
     28 CAL          7.7170    23.7230     2.2620 ca         1 QHA      -0.106000
     29 CAN          8.4940    22.6690     2.7340 ca         1 QHA      -0.118000
     30 CAP          9.8630    22.8340     2.9120 ca         1 QHA      -0.104000
     31 NBB         11.6730    25.3270     5.0000 ns         1 QHA      -0.499900
     32 CBI         10.8080    25.1530     6.0150 c          1 QHA       0.631100
     33 OAE         10.5730    24.1020     6.5880 o          1 QHA      -0.539000
     34 OBF         10.2120    26.3320     6.3320 os         1 QHA      -0.463100
     35 CBS          9.2520    26.3110     7.4060 c5         1 QHA       0.163300
     36 CBV          7.8120    26.0760     6.9100 c5         1 QHA      -0.177700
     37 CAV          9.1800    27.7160     7.9800 c5         1 QHA       0.152600
     38 OBE          8.2240    28.4070     7.1750 os         1 QHA      -0.468000
     39 CBU          7.1690    27.4870     6.8870 c5         1 QHA       0.372300
     40 OBD          6.6600    27.7110     5.6060 os         1 QHA      -0.429000
     41 CAU          7.3640    26.8540     4.6900 c5         1 QHA       0.153600
     42 CBR          7.6270    25.5740     5.4640 c5         1 QHA       0.154300
     43 OBC          6.4830    24.7330     5.3460 os         1 QHA      -0.450000
     44 CAT          6.7100    23.4170     5.7990 c3         1 QHA       0.171800
     45 CBH          5.5880    22.5370     5.3620 c2         1 QHA       0.098300
     46 FAI          5.7540    21.2820     5.8730 f          1 QHA      -0.191500
     47 CAA          4.5490    22.8100     4.5980 c2         1 QHA      -0.344000
     48 HAB1        19.6120    13.8700     4.4170 h1         1 QHA       0.050367
     49 HAB2        19.0680    15.1940     5.4650 h1         1 QHA       0.050367
     50 HAB3        17.8810    14.2070     4.5860 h1         1 QHA       0.050367
     51 HAS         14.9340    18.1800     5.0470 ha         1 QHA       0.154000
     52 HAR         17.1660    19.7570     0.8320 ha         1 QHA       0.139000
     53 HAQ         15.1810    20.9330     1.7330 ha         1 QHA       0.131000
     54 HAX1        14.8290    20.4440     6.3540 h1         1 QHA       0.050200
     55 HAX2        16.1270    21.4530     5.7120 h1         1 QHA       0.050200
     56 HAY1        15.6820    23.2080     4.3410 h1         1 QHA       0.065700
     57 HAY2        14.4850    22.8660     3.1020 h1         1 QHA       0.065700
     58 HBO         15.1980    23.3870     6.9870 hc         1 QHA       0.045700
     59 HAD1        15.9200    22.5650     9.2080 hc         1 QHA       0.040533
     60 HAD2        15.7650    20.8940     8.6550 hc         1 QHA       0.040533
     61 HAD3        16.9860    21.9530     7.9360 hc         1 QHA       0.040533
     62 HAC1        13.4470    22.9990     8.7070 hc         1 QHA       0.040533
     63 HAC2        12.7940    22.6640     7.1030 hc         1 QHA       0.040533
     64 HAC3        13.2630    21.3280     8.1590 hc         1 QHA       0.040533
     65 HBP         13.9720    24.4260     5.6650 h1         1 QHA       0.053700
     66 HAH         14.2090    26.1930     4.2970 ho         1 QHA       0.450000
     67 HBQ         11.9690    23.3100     4.7840 h1         1 QHA       0.098700
     68 HAW1        12.2890    25.1770     2.3950 hc         1 QHA       0.070200
     69 HAW2        12.5060    23.4320     2.3350 hc         1 QHA       0.070200
     70 HBB         11.6850    26.2370     4.5640 hn         1 QHA       0.322500
     71 HAO         10.1530    26.0580     1.9320 ha         1 QHA       0.118500
     72 HAP         10.4640    22.0100     3.2750 ha         1 QHA       0.118500
     73 HAM          7.7240    25.7680     1.6070 ha         1 QHA       0.114000
     74 HAL          6.6500    23.5960     2.1320 ha         1 QHA       0.116000
     75 HAN          8.0320    21.7180     2.9670 ha         1 QHA       0.114000
     76 HBS          9.5630    25.5700     8.1360 h1         1 QHA       0.087700
     77 HBV          7.2950    25.4200     7.6060 hc         1 QHA       0.088700
     78 HAV1         8.8460    27.6720     9.0230 h1         1 QHA       0.064700
     79 HAV2        10.1300    28.2450     7.9250 h1         1 QHA       0.064700
     80 HBU          6.3560    27.6340     7.6010 h2         1 QHA       0.088700
     81 HBR          8.4950    25.0460     5.0730 h1         1 QHA       0.072700
     82 HAU1         6.7330    26.6980     3.8200 h1         1 QHA       0.070200
     83 HAU2         8.3080    27.3110     4.3860 h1         1 QHA       0.070200
     84 HAT1         7.6490    23.0240     5.3900 h1         1 QHA       0.054200
     85 HAT2         6.7870    23.3710     6.8940 h1         1 QHA       0.054200
     86 HAA1         3.8120    22.0540     4.3670 ha         1 QHA       0.188000
     87 HAA2         4.4360    23.8050     4.1970 ha         1 QHA       0.188000
     88 HBA         19.7380    15.4180     2.7320 hn         1 QHA       0.526000
@<TRIPOS>BOND
     1     1     2 1   
     2     1    48 1   
     3     1    49 1   
     4     1    50 1   
     5     2     3 1   
     6     2    88 1   
     7     3     4 2   
     8     3     5 1   
     9     4     8 1   
    10     5     6 1   
    11     6     7 ar  
    12     6     8 ar  
    13     7    11 ar  
    14     7    51 1   
    15     8     9 ar  
    16     9    10 ar  
    17     9    52 1   
    18    10    11 ar  
    19    10    53 1   
    20    11    12 1   
    21    12    13 2   
    22    12    14 2   
    23    12    15 1   
    24    15    16 1   
    25    15    20 1   
    26    16    17 1   
    27    16    54 1   
    28    16    55 1   
    29    17    18 1   
    30    17    19 1   
    31    17    58 1   
    32    18    59 1   
    33    18    60 1   
    34    18    61 1   
    35    19    62 1   
    36    19    63 1   
    37    19    64 1   
    38    20    21 1   
    39    20    56 1   
    40    20    57 1   
    41    21    22 1   
    42    21    23 1   
    43    21    65 1   
    44    22    66 1   
    45    23    24 1   
    46    23    31 1   
    47    23    67 1   
    48    24    25 1   
    49    24    68 1   
    50    24    69 1   
    51    25    26 ar  
    52    25    30 ar  
    53    26    27 ar  
    54    26    71 1   
    55    27    28 ar  
    56    27    73 1   
    57    28    29 ar  
    58    28    74 1   
    59    29    30 ar  
    60    29    75 1   
    61    30    72 1   
    62    31    32 1   
    63    31    70 1   
    64    32    33 2   
    65    32    34 1   
    66    34    35 1   
    67    35    36 1   
    68    35    37 1   
    69    35    76 1   
    70    36    39 1   
    71    36    42 1   
    72    36    77 1   
    73    37    38 1   
    74    37    78 1   
    75    37    79 1   
    76    38    39 1   
    77    39    40 1   
    78    39    80 1   
    79    40    41 1   
    80    41    42 1   
    81    41    82 1   
    82    41    83 1   
    83    42    43 1   
    84    42    81 1   
    85    43    44 1   
    86    44    45 1   
    87    44    84 1   
    88    44    85 1   
    89    45    46 1   
    90    45    47 2   
    91    47    86 1   
    92    47    87 1   
@<TRIPOS>SUBSTRUCTURE
     1 QHA         1 TEMP              0 ****  ****    0 ROOT
