@<TRIPOS>MOLECULE
QHC
   41    43     1     0     0
SMALL
No Charge or Current Charge


@<TRIPOS>ATOM
      1 C1           3.8700    -0.3840     1.0290 ca         1 QHC       0.179000
      2 C2           4.7430     0.3250     0.1810 ca         1 QHC       0.069000
      3 C3           4.2190     1.2300    -0.7570 ca         1 QHC      -0.077000
      4 C4           2.8280     1.4210    -0.8490 ca         1 QHC      -0.110000
      5 C5           1.9360     0.7070    -0.0130 cp         1 QHC      -0.004000
      6 C6           2.4820    -0.1920     0.9350 ca         1 QHC      -0.138000
      7 C8           0.4630     0.9260    -0.1150 cp         1 QHC      -0.107000
      8 C9          -0.0540     2.2370     0.0130 ca         1 QHC       0.351900
      9 C11         -2.2310     1.5320    -0.2780 ca         1 QHC       0.353900
     10 C12         -0.4570    -0.1330    -0.3540 ca         1 QHC      -0.008300
     11 C13         -1.8380     0.1850    -0.4150 ca         1 QHC      -0.151300
     12 C14         -2.9170    -0.8740    -0.6960 c6         1 QHC       0.159000
     13 C15         -2.3970    -2.3270    -0.6250 c6         1 QHC      -0.093400
     14 C16         -1.0280    -2.4540    -1.3150 c6         1 QHC      -0.071400
     15 C17          0.0090    -1.5820    -0.5780 c6         1 QHC      -0.042100
     16 C19         -6.3300    -0.4740     1.0760 c3         1 QHC      -0.157400
     17 C21         -6.8930     0.9610     1.1690 c3         1 QHC      -0.077100
     18 Cl7          6.4880     0.0960     0.2860 cl         1 QHC      -0.166000
     19 N10         -1.3650     2.5450    -0.0660 nb         1 QHC      -0.663000
     20 O20         -5.7480    -0.6960    -1.2630 o          1 QHC      -0.597100
     21 F22          4.3590    -1.2520     1.9440 f          1 QHC      -0.160000
     22 N23         -4.0360    -0.7070     0.2380 ns         1 QHC      -0.511900
     23 H1           4.8890     1.7820    -1.4110 ha         1 QHC       0.135000
     24 H2           2.4350     2.1220    -1.5820 ha         1 QHC       0.129000
     25 H3           1.8260    -0.7350     1.6090 ha         1 QHC       0.137000
     26 H4           0.6200     3.0750     0.1910 h4         1 QHC       0.024100
     27 H5          -3.2800     1.8150    -0.3480 h4         1 QHC       0.028100
     28 H6          -3.2770    -0.6960    -1.7220 h1         1 QHC       0.095700
     29 H7          -2.3040    -2.6430     0.4240 hc         1 QHC       0.050700
     30 H8          -3.1230    -3.0050    -1.0930 hc         1 QHC       0.050700
     31 H9          -0.7010    -3.5020    -1.3200 hc         1 QHC       0.051200
     32 H10         -1.1050    -2.1400    -2.3650 hc         1 QHC       0.051200
     33 H11          0.9490    -1.5940    -1.1470 hc         1 QHC       0.058700
     34 H12          0.2320    -2.0410     0.3950 hc         1 QHC       0.058700
     35 H13         -7.1710    -1.1640     0.9370 hc         1 QHC       0.054700
     36 H14         -5.8150    -0.7010     2.0170 hc         1 QHC       0.054700
     37 H15         -6.0820     1.6870     1.3050 hc         1 QHC       0.043700
     38 H16         -7.4410     1.2240     0.2560 hc         1 QHC       0.043700
     39 H17         -7.5800     1.0500     2.0190 hc         1 QHC       0.043700
     40 H18         -3.8240    -0.6580     1.2270 hn         1 QHC       0.310500
     41 C18         -5.3650    -0.6260    -0.1040 c          1 QHC       0.598100
@<TRIPOS>BOND
     1     1     2 ar  
     2     1     6 ar  
     3     1    21 1   
     4     2     3 ar  
     5     2    18 1   
     6     3     4 ar  
     7     3    23 1   
     8     4     5 ar  
     9     4    24 1   
    10     5     6 ar  
    11     5     7 1   
    12     6    25 1   
    13     7     8 ar  
    14     7    10 ar  
    15     8    19 ar  
    16     8    26 1   
    17     9    11 ar  
    18     9    19 ar  
    19     9    27 1   
    20    10    11 ar  
    21    10    15 1   
    22    11    12 1   
    23    12    13 1   
    24    12    22 1   
    25    12    28 1   
    26    13    14 1   
    27    13    29 1   
    28    13    30 1   
    29    14    15 1   
    30    14    31 1   
    31    14    32 1   
    32    15    33 1   
    33    15    34 1   
    34    16    17 1   
    35    16    35 1   
    36    16    36 1   
    37    16    41 1   
    38    17    37 1   
    39    17    38 1   
    40    17    39 1   
    41    20    41 2   
    42    22    40 1   
    43    22    41 1   
@<TRIPOS>SUBSTRUCTURE
     1 QHC         1 TEMP              0 ****  ****    0 ROOT
