@<TRIPOS>MOLECULE
QHC
   41    43     1     0     0
SMALL
abcg2


@<TRIPOS>ATOM
      1 C1           3.9480    -0.5610     0.8410 ca         1 QHC       0.179000
      2 C2           4.7940     0.1160    -0.0240 ca         1 QHC       0.069000
      3 C3           4.2630     1.0520    -0.8940 ca         1 QHC      -0.077000
      4 C4           2.8980     1.2980    -0.8920 ca         1 QHC      -0.110000
      5 C5           2.0490     0.6120    -0.0270 cp         1 QHC      -0.004000
      6 C6           2.5910    -0.3250     0.8510 ca         1 QHC      -0.138000
      7 C8           0.6000     0.9070    -0.0170 cp         1 QHC      -0.107000
      8 C9           0.1880     2.2110     0.2310 ca         1 QHC       0.351900
      9 C11         -1.9980     1.6590     0.0450 ca         1 QHC       0.353900
     10 C12         -0.3730    -0.0710    -0.2660 ca         1 QHC      -0.008300
     11 C13         -1.7120     0.3230    -0.2210 ca         1 QHC      -0.151300
     12 C14         -2.8490    -0.6390    -0.5060 c6         1 QHC       0.159000
     13 C15         -2.3990    -2.0950    -0.4520 c6         1 QHC      -0.093400
     14 C16         -1.1170    -2.2710    -1.2460 c6         1 QHC      -0.071400
     15 C17          0.0130    -1.4890    -0.5940 c6         1 QHC      -0.042100
     16 C19         -6.2560    -0.2190     1.1010 c3         1 QHC      -0.157400
     17 C21         -7.6010     0.3400     0.6710 c3         1 QHC      -0.077100
     18 CL7          6.4820    -0.2200     0.0050 cl         1 QHC      -0.166000
     19 N10         -1.0820     2.5900     0.2620 nb         1 QHC      -0.663000
     20 O20         -5.5750    -0.2890    -1.2040 o          1 QHC      -0.597100
     21 F22          4.4650    -1.4570     1.6840 f          1 QHC      -0.160000
     22 N23         -3.9650    -0.3940     0.3800 ns         1 QHC      -0.511900
     23 H1           4.9130     1.5840    -1.5750 ha         1 QHC       0.135000
     24 H2           2.4910     2.0250    -1.5830 ha         1 QHC       0.129000
     25 H3           1.9650    -0.8620     1.5520 ha         1 QHC       0.137000
     26 H4           0.9300     2.9790     0.4200 h4         1 QHC       0.024100
     27 H5          -3.0320     1.9880     0.0820 h4         1 QHC       0.028100
     28 H6          -3.2050    -0.4340    -1.5190 h1         1 QHC       0.095700
     29 H7          -2.2350    -2.3910     0.5890 hc         1 QHC       0.050700
     30 H8          -3.1990    -2.7260    -0.8440 hc         1 QHC       0.050700
     31 H9          -0.8420    -3.3240    -1.3070 hc         1 QHC       0.051200
     32 H10         -1.2670    -1.9250    -2.2740 hc         1 QHC       0.051200
     33 H11          0.8990    -1.4860    -1.2320 hc         1 QHC       0.058700
     34 H12          0.3120    -1.9970     0.3290 hc         1 QHC       0.058700
     35 H13         -6.3810    -1.2330     1.4950 hc         1 QHC       0.054700
     36 H14         -5.8430     0.3670     1.9250 hc         1 QHC       0.054700
     37 H15         -7.5120     1.3630     0.3050 hc         1 QHC       0.043700
     38 H16         -8.0520    -0.2610    -0.1170 hc         1 QHC       0.043700
     39 H17         -8.2890     0.3490     1.5160 hc         1 QHC       0.043700
     40 H18         -3.7850    -0.4570     1.3710 hn         1 QHC       0.310500
     41 C18         -5.2470    -0.2970    -0.0260 c          1 QHC       0.598100
@<TRIPOS>BOND
     1     1     2 ar  
     2     1     6 ar  
     3     1    21 1   
     4     2     3 ar  
     5     2    18 1   
     6     3     4 ar  
     7     3    23 1   
     8     4     5 ar  
     9     4    24 1   
    10     5     6 ar  
    11     5     7 1   
    12     6    25 1   
    13     7     8 ar  
    14     7    10 ar  
    15     8    19 ar  
    16     8    26 1   
    17     9    11 ar  
    18     9    19 ar  
    19     9    27 1   
    20    10    11 ar  
    21    10    15 1   
    22    11    12 1   
    23    12    13 1   
    24    12    22 1   
    25    12    28 1   
    26    13    14 1   
    27    13    29 1   
    28    13    30 1   
    29    14    15 1   
    30    14    31 1   
    31    14    32 1   
    32    15    33 1   
    33    15    34 1   
    34    16    17 1   
    35    16    35 1   
    36    16    36 1   
    37    16    41 1   
    38    17    37 1   
    39    17    38 1   
    40    17    39 1   
    41    20    41 2   
    42    22    40 1   
    43    22    41 1   
@<TRIPOS>SUBSTRUCTURE
     1 QHC         1 TEMP              0 ****  ****    0 ROOT
