@<TRIPOS>MOLECULE
QHE
   27    29     1     0     0
SMALL
abcg2


@<TRIPOS>ATOM
      1 N1          33.7260    16.9160    -0.7560 nc         1 QHE      -0.321000
      2 C4          31.2540    14.7640    -2.5400 cc         1 QHE      -0.235000
      3 C5          30.6790    15.4820    -1.5600 cd         1 QHE      -0.027000
      4 C6          29.2610    15.4510    -1.1810 ca         1 QHE      -0.043000
      5 C7          28.2870    15.7570    -2.1280 ca         1 QHE      -0.085500
      6 C8          26.9420    15.6870    -1.7940 ca         1 QHE      -0.111500
      7 C10         27.5320    15.0060     0.4360 ca         1 QHE      -0.111500
      8 C           30.9850    19.0250     1.6450 c3         1 QHE      -0.081100
      9 C2          31.7260    17.2300     0.0660 cd         1 QHE       0.410800
     10 N2          31.6310    16.2650    -0.9020 na         1 QHE      -0.231000
     11 C3          32.9010    16.1290    -1.3760 cd         1 QHE       0.405900
     12 N           32.9740    17.6000     0.1490 nc         1 QHE      -0.352000
     13 S           32.9760    15.0060    -2.6850 ss         1 QHE       0.039600
     14 C11         28.8760    15.0690     0.1040 ca         1 QHE      -0.085500
     15 C9          26.5630    15.3150    -0.5110 ca         1 QHE      -0.093000
     16 H1          30.7550    14.0600    -3.1860 h4         1 QHE       0.166000
     17 H2          28.5850    16.0600    -3.1240 ha         1 QHE       0.122500
     18 H3          26.1920    15.9280    -2.5340 ha         1 QHE       0.120000
     19 H4          27.2410    14.7060     1.4340 ha         1 QHE       0.120000
     20 H5          30.1260    19.3830     2.2090 hc         1 QHE       0.045033
     21 H6          31.7900    18.8260     2.3510 hc         1 QHE       0.045033
     22 H7          31.3100    19.8260     0.9820 hc         1 QHE       0.045033
     23 H8          29.7610    17.9960     0.1990 hc         1 QHE       0.056200
     24 H9          30.2350    17.0110     1.5550 hc         1 QHE       0.056200
     25 H10         29.6260    14.8080     0.8400 ha         1 QHE       0.122500
     26 H11         25.5150    15.2630    -0.2490 ha         1 QHE       0.118000
     27 C1          30.5980    17.7770     0.8660 c3         1 QHE      -0.097700
@<TRIPOS>BOND
     1     1    11 2   
     2     1    12 1   
     3     2     3 2   
     4     2    13 1   
     5     2    16 1   
     6     3     4 1   
     7     3    10 1   
     8     4     5 ar  
     9     4    14 ar  
    10     5     6 ar  
    11     5    17 1   
    12     6    15 ar  
    13     6    18 1   
    14     7    14 ar  
    15     7    15 ar  
    16     7    19 1   
    17     8    20 1   
    18     8    21 1   
    19     8    22 1   
    20     8    27 1   
    21     9    10 1   
    22     9    12 2   
    23     9    27 1   
    24    10    11 1   
    25    11    13 1   
    26    14    25 1   
    27    15    26 1   
    28    23    27 1   
    29    24    27 1   
@<TRIPOS>SUBSTRUCTURE
     1 QHE         1 TEMP              0 ****  ****    0 ROOT
