@<TRIPOS>MOLECULE
QHE
   27    29     1     0     0
SMALL
No Charge or Current Charge


@<TRIPOS>ATOM
      1 N1          33.8070    16.6370    -0.5930 nc         1 QHE      -0.321000
      2 C4          31.2050    15.3680    -2.7470 cc         1 QHE      -0.235000
      3 C5          30.7020    15.5530    -1.4630 cd         1 QHE      -0.027000
      4 C6          29.2660    15.4690    -1.1180 ca         1 QHE      -0.043000
      5 C7          28.2770    15.6000    -2.1180 ca         1 QHE      -0.085500
      6 C8          26.9120    15.5000    -1.7950 ca         1 QHE      -0.111500
      7 C10         27.4900    15.0850     0.5260 ca         1 QHE      -0.111500
      8 C           30.9700    19.0800     1.4160 c3         1 QHE      -0.081100
      9 C2          31.7910    16.9280     0.2390 cd         1 QHE       0.410800
     10 N2          31.7590    15.8080    -0.5750 na         1 QHE      -0.231000
     11 C3          32.9930    15.7380    -1.1220 cd         1 QHE       0.405900
     12 N           33.0550    17.3450     0.3340 nc         1 QHE      -0.352000
     13 S           32.9690    15.3810    -2.8250 ss         1 QHE       0.039600
     14 C11         28.8540    15.1870     0.2030 ca         1 QHE      -0.085500
     15 C9          26.5170    15.2480    -0.4720 ca         1 QHE      -0.093000
     16 H1          30.6610    15.1540    -3.6570 h4         1 QHE       0.166000
     17 H2          28.5560    15.8040    -3.1480 ha         1 QHE       0.122500
     18 H3          26.1600    15.6180    -2.5730 ha         1 QHE       0.120000
     19 H4          27.1880    14.8690     1.5480 ha         1 QHE       0.120000
     20 H5          30.0800    19.5450     1.8550 hc         1 QHE       0.045033
     21 H6          31.7500    19.0470     2.1860 hc         1 QHE       0.045033
     22 H7          31.3170    19.7170     0.5930 hc         1 QHE       0.045033
     23 H8          29.8030    17.7540     0.2010 hc         1 QHE       0.056200
     24 H9          30.2750    17.0710     1.7560 hc         1 QHE       0.056200
     25 H10         29.5930    15.0140     0.9810 ha         1 QHE       0.122500
     26 H11         25.4610    15.1680    -0.2230 ha         1 QHE       0.118000
     27 C1          30.6370    17.6580     0.9050 c3         1 QHE      -0.097700
@<TRIPOS>BOND
     1     1    11 2   
     2     1    12 1   
     3     2     3 2   
     4     2    13 1   
     5     2    16 1   
     6     3     4 1   
     7     3    10 1   
     8     4     5 ar  
     9     4    14 ar  
    10     5     6 ar  
    11     5    17 1   
    12     6    15 ar  
    13     6    18 1   
    14     7    14 ar  
    15     7    15 ar  
    16     7    19 1   
    17     8    20 1   
    18     8    21 1   
    19     8    22 1   
    20     8    27 1   
    21     9    10 1   
    22     9    12 2   
    23     9    27 1   
    24    10    11 1   
    25    11    13 1   
    26    14    25 1   
    27    15    26 1   
    28    23    27 1   
    29    24    27 1   
@<TRIPOS>SUBSTRUCTURE
     1 QHE         1 TEMP              0 ****  ****    0 ROOT
