@<TRIPOS>MOLECULE
QHF
   69    71     1     0     0
SMALL
abcg2


@<TRIPOS>ATOM
      1 C1           9.0670   -15.3630     2.6420 c3         1 QHF      -0.086100
      2 F1          13.5830   -18.5010     5.5060 f          1 QHF      -0.157000
      3 N1           8.8180   -13.3320     9.6690 n3         1 QHF      -0.799500
      4 O1           9.3990   -11.2710     8.4270 o          1 QHF      -0.549500
      5 S1           8.3690   -12.2820     8.5250 s6         1 QHF       1.267100
      6 C2           9.8560   -14.8020     3.8350 c3         1 QHF      -0.095000
      7 N2          10.5670   -14.5980    18.0120 nc         1 QHF      -0.360300
      8 O2           7.0150   -11.8580     8.8200 o          1 QHF      -0.549500
      9 C3           8.8720   -14.3720     4.9340 c3         1 QHF      -0.084400
     10 N3          10.2830   -14.4320     6.9640 n          1 QHF      -0.303300
     11 O3          10.4220   -15.9920    17.8980 os         1 QHF      -0.099700
     12 C4           9.4350   -13.5680     6.1360 c3         1 QHF       0.209400
     13 N4          12.1690   -15.4840     4.1910 nb         1 QHF      -0.160000
     14 O4           9.6130   -15.5420     7.4790 oh         1 QHF      -0.461100
     15 C5          10.2310   -12.3530     5.6600 c3         1 QHF      -0.123100
     16 N5          10.4280   -16.9850     4.7600 nb         1 QHF      -0.160000
     17 O5          12.1760   -15.3390     7.7610 o          1 QHF      -0.631100
     18 C6           8.1950   -13.1390     6.9480 c3         1 QHF      -0.351400
     19 C7           7.8930   -14.3790    10.1250 c6         1 QHF       0.231300
     20 C8           7.9140   -14.4540    11.6470 c6         1 QHF      -0.080900
     21 C9           9.3330   -14.6430    12.1920 c6         1 QHF      -0.058700
     22 C10          9.3260   -14.7050    13.7190 c3         1 QHF      -0.071400
     23 C11         10.6760   -15.0910    14.3410 c3         1 QHF       0.005900
     24 C12         10.6140   -15.2130    15.8290 cd         1 QHF      -0.222300
     25 C13         10.6770   -14.1520    16.7860 cd         1 QHF       0.289300
     26 C14         10.8530   -12.6980    16.5130 c3         1 QHF      -0.134400
     27 C15         10.4540   -16.3300    16.5880 cc         1 QHF       0.199300
     28 C16         10.3150   -17.7690    16.2620 c3         1 QHF      -0.136400
     29 C17         10.2450   -13.5400    11.6420 c6         1 QHF      -0.080900
     30 C18         10.2050   -13.4920    10.1180 c6         1 QHF       0.231300
     31 C19         11.6070   -14.4280     7.1500 c          1 QHF       0.580900
     32 C20         10.8770   -15.8130     4.3000 ca         1 QHF       0.114300
     33 C21         13.0750   -16.3790     4.5860 ca         1 QHF       0.083900
     34 C22         12.6740   -17.6010     5.0880 ca         1 QHF       0.068000
     35 C23         11.3240   -17.8830     5.1600 ca         1 QHF       0.083900
     36 H1           9.7430   -15.6690     1.8410 hc         1 QHF       0.045033
     37 H1A          8.4760   -16.2300     2.9430 hc         1 QHF       0.045033
     38 H1B          8.3910   -14.6020     2.2500 hc         1 QHF       0.045033
     39 H2          10.4150   -13.9340     3.4880 hc         1 QHF       0.070700
     40 H3           8.1170   -13.7380     4.4650 hc         1 QHF       0.067200
     41 H3A          8.3560   -15.2520     5.3160 hc         1 QHF       0.067200
     42 HO4         10.3530   -16.0870     7.8200 ho         1 QHF       0.475000
     43 H5          10.6090   -11.7690     6.4940 hc         1 QHF       0.065033
     44 H5A         11.0600   -12.6400     5.0180 hc         1 QHF       0.065033
     45 H5B          9.5570   -11.7240     5.0780 hc         1 QHF       0.065033
     46 H6           7.5640   -13.9990     7.1730 h1         1 QHF       0.107200
     47 H6A          7.6090   -12.4470     6.3430 h1         1 QHF       0.107200
     48 H7           6.8940   -14.1480     9.7640 h1         1 QHF       0.056200
     49 H7A          8.2040   -15.3330     9.6910 h1         1 QHF       0.056200
     50 H8           7.4860   -13.5340    12.0570 hc         1 QHF       0.052700
     51 H8A          7.2770   -15.2840    11.9650 hc         1 QHF       0.052700
     52 H9           9.7090   -15.6040    11.8150 hc         1 QHF       0.044700
     53 H10          9.0010   -13.7390    14.1180 hc         1 QHF       0.044700
     54 H10A         8.5790   -15.4390    14.0380 hc         1 QHF       0.044700
     55 H11         11.0080   -16.0390    13.9100 hc         1 QHF       0.047200
     56 H11A        11.4330   -14.3480    14.0780 hc         1 QHF       0.047200
     57 H14         10.9510   -12.1410    17.4430 hc         1 QHF       0.057033
     58 H14A        11.7440   -12.5320    15.9030 hc         1 QHF       0.057033
     59 H14B         9.9990   -12.3070    15.9560 hc         1 QHF       0.057033
     60 H16         11.0870   -18.3570    16.7640 hc         1 QHF       0.062367
     61 H16A         9.3430   -18.1480    16.5850 hc         1 QHF       0.062367
     62 H16B        10.4050   -17.9170    15.1880 hc         1 QHF       0.062367
     63 H17          9.9310   -12.5720    12.0450 hc         1 QHF       0.052700
     64 H17A        11.2800   -13.7040    11.9480 hc         1 QHF       0.052700
     65 H18         10.6100   -14.4230     9.7140 h1         1 QHF       0.056200
     66 H18A        10.7950   -12.6640     9.7360 h1         1 QHF       0.056200
     67 H19         12.1220   -13.5660     6.7300 h5         1 QHF       0.058200
     68 H21         14.1250   -16.1220     4.5090 h4         1 QHF       0.044100
     69 H23         10.9700   -18.8340     5.5430 h4         1 QHF       0.044100
@<TRIPOS>BOND
     1     1     6 1   
     2     1    36 1   
     3     1    37 1   
     4     1    38 1   
     5     2    34 1   
     6     3     5 1   
     7     3    19 1   
     8     3    30 1   
     9     4     5 2   
    10     5     8 2   
    11     5    18 1   
    12     6     9 1   
    13     6    32 1   
    14     6    39 1   
    15     7    11 1   
    16     7    25 2   
    17     9    12 1   
    18     9    40 1   
    19     9    41 1   
    20    10    12 1   
    21    10    14 1   
    22    10    31 1   
    23    11    27 1   
    24    12    15 1   
    25    12    18 1   
    26    13    32 ar  
    27    13    33 ar  
    28    14    42 1   
    29    15    43 1   
    30    15    44 1   
    31    15    45 1   
    32    16    32 ar  
    33    16    35 ar  
    34    17    31 2   
    35    18    46 1   
    36    18    47 1   
    37    19    20 1   
    38    19    48 1   
    39    19    49 1   
    40    20    21 1   
    41    20    50 1   
    42    20    51 1   
    43    21    22 1   
    44    21    29 1   
    45    21    52 1   
    46    22    23 1   
    47    22    53 1   
    48    22    54 1   
    49    23    24 1   
    50    23    55 1   
    51    23    56 1   
    52    24    25 1   
    53    24    27 2   
    54    25    26 1   
    55    26    57 1   
    56    26    58 1   
    57    26    59 1   
    58    27    28 1   
    59    28    60 1   
    60    28    61 1   
    61    28    62 1   
    62    29    30 1   
    63    29    63 1   
    64    29    64 1   
    65    30    65 1   
    66    30    66 1   
    67    31    67 1   
    68    33    34 ar  
    69    33    68 1   
    70    34    35 ar  
    71    35    69 1   
@<TRIPOS>SUBSTRUCTURE
     1 QHF         1 TEMP              0 ****  ****    0 ROOT
