@<TRIPOS>MOLECULE
QHF
   69    71     1     0     0
SMALL
No Charge or Current Charge


@<TRIPOS>ATOM
      1 C1           8.6570   -16.5220     3.4320 c3         1 QHF      -0.086100
      2 F1          14.3770   -17.7290     5.7780 f          1 QHF      -0.157000
      3 N1           8.9100   -12.5030     9.7840 n3         1 QHF      -0.799500
      4 O1          10.1120   -11.2090     7.9300 o          1 QHF      -0.549500
      5 S1           8.7770   -11.7280     8.2420 s6         1 QHF       1.267100
      6 C2           9.5400   -15.4760     4.1560 c3         1 QHF      -0.095000
      7 N2          10.3340   -15.4310    17.9350 nc         1 QHF      -0.360300
      8 O2           7.6670   -10.7800     8.3800 o          1 QHF      -0.549500
      9 C3           8.7390   -14.7650     5.2980 c3         1 QHF      -0.084400
     10 N3          10.5330   -14.1570     6.9600 n          1 QHF      -0.303300
     11 O3          10.1070   -16.7910    17.5220 os         1 QHF      -0.099700
     12 C4           9.4370   -13.6050     6.1030 c3         1 QHF       0.209400
     13 N4          11.9980   -15.5210     4.1450 nb         1 QHF      -0.160000
     14 O4          10.1710   -15.2700     7.8230 oh         1 QHF      -0.461100
     15 C5           9.9110   -12.5370     5.0660 c3         1 QHF      -0.123100
     16 N5          10.8020   -17.1770     5.4320 nb         1 QHF      -0.160000
     17 O5          12.7400   -14.1700     7.6940 o          1 QHF      -0.631100
     18 C6           8.3280   -12.9870     7.0070 c3         1 QHF      -0.351400
     19 C7           7.9570   -13.6060    10.0590 c6         1 QHF       0.231300
     20 C8           7.9160   -13.9530    11.5640 c6         1 QHF      -0.080900
     21 C9           9.3250   -14.3230    12.0960 c6         1 QHF      -0.058700
     22 C10          9.2770   -14.6660    13.6160 c3         1 QHF      -0.071400
     23 C11         10.5990   -15.1860    14.2220 c3         1 QHF       0.005900
     24 C12         10.4370   -15.6010    15.6640 cd         1 QHF      -0.222300
     25 C13         10.5220   -14.7740    16.8050 cd         1 QHF       0.289300
     26 C14         10.7960   -13.2950    16.8180 c3         1 QHF      -0.134400
     27 C15         10.1770   -16.8460    16.1510 cc         1 QHF       0.199300
     28 C16          9.9700   -18.1590    15.4530 c3         1 QHF      -0.136400
     29 C17         10.3030   -13.1640    11.7650 c6         1 QHF      -0.080900
     30 C18         10.2850   -12.8090    10.2590 c6         1 QHF       0.231300
     31 C19         11.8670   -13.6580     6.9980 c          1 QHF       0.580900
     32 C20         10.8650   -16.0990     4.6110 ca         1 QHF       0.114300
     33 C21         13.1690   -16.0660     4.5380 ca         1 QHF       0.083900
     34 C22         13.2030   -17.1830     5.3890 ca         1 QHF       0.068000
     35 C23         11.9770   -17.7190     5.8180 ca         1 QHF       0.083900
     36 H1           9.2130   -16.9960     2.6130 hc         1 QHF       0.045033
     37 H1A          8.3250   -17.3090     4.1210 hc         1 QHF       0.045033
     38 H1B          7.7650   -16.0480     3.0030 hc         1 QHF       0.045033
     39 H2           9.7580   -14.7190     3.3920 hc         1 QHF       0.070700
     40 H3           7.8310   -14.3520     4.8410 hc         1 QHF       0.067200
     41 H3A          8.3740   -15.5280     5.9960 hc         1 QHF       0.067200
     42 HO4         10.4120   -16.0760     7.3150 ho         1 QHF       0.475000
     43 H5          10.2850   -11.6200     5.5280 hc         1 QHF       0.065033
     44 H5A         10.7170   -12.9240     4.4330 hc         1 QHF       0.065033
     45 H5B          9.0840   -12.2470     4.4060 hc         1 QHF       0.065033
     46 H6           7.7850   -13.7740     7.5310 h1         1 QHF       0.107200
     47 H6A          7.6030   -12.4740     6.3670 h1         1 QHF       0.107200
     48 H7           6.9410   -13.3260     9.7430 h1         1 QHF       0.056200
     49 H7A          8.2370   -14.5110     9.5010 h1         1 QHF       0.056200
     50 H8           7.5150   -13.0970    12.1230 hc         1 QHF       0.052700
     51 H8A          7.2200   -14.7870    11.7250 hc         1 QHF       0.052700
     52 H9           9.6650   -15.2310    11.5770 hc         1 QHF       0.044700
     53 H10          8.9520   -13.7850    14.1840 hc         1 QHF       0.044700
     54 H10A         8.5090   -15.4320    13.7840 hc         1 QHF       0.044700
     55 H11         10.9590   -16.0340    13.6260 hc         1 QHF       0.047200
     56 H11A        11.3700   -14.4100    14.1490 hc         1 QHF       0.047200
     57 H14         10.8060   -12.8940    17.8390 hc         1 QHF       0.057033
     58 H14A        11.7690   -13.0760    16.3640 hc         1 QHF       0.057033
     59 H14B        10.0300   -12.7530    16.2530 hc         1 QHF       0.057033
     60 H16         10.9080   -18.5130    15.0110 hc         1 QHF       0.062367
     61 H16A         9.6120   -18.9250    16.1500 hc         1 QHF       0.062367
     62 H16B         9.2310   -18.0580    14.6500 hc         1 QHF       0.062367
     63 H17         10.0380   -12.2720    12.3490 hc         1 QHF       0.052700
     64 H17A        11.3290   -13.4310    12.0490 hc         1 QHF       0.052700
     65 H18         10.7180   -13.6440     9.6930 h1         1 QHF       0.056200
     66 H18A        10.9520   -11.9460    10.1200 h1         1 QHF       0.056200
     67 H19         12.0500   -12.7820     6.3500 h5         1 QHF       0.058200
     68 H21         14.0810   -15.6030     4.1670 h4         1 QHF       0.044100
     69 H23         11.9320   -18.5850     6.4760 h4         1 QHF       0.044100
@<TRIPOS>BOND
     1     1     6 1   
     2     1    36 1   
     3     1    37 1   
     4     1    38 1   
     5     2    34 1   
     6     3     5 1   
     7     3    19 1   
     8     3    30 1   
     9     4     5 2   
    10     5     8 2   
    11     5    18 1   
    12     6     9 1   
    13     6    32 1   
    14     6    39 1   
    15     7    11 1   
    16     7    25 2   
    17     9    12 1   
    18     9    40 1   
    19     9    41 1   
    20    10    12 1   
    21    10    14 1   
    22    10    31 1   
    23    11    27 1   
    24    12    15 1   
    25    12    18 1   
    26    13    32 ar  
    27    13    33 ar  
    28    14    42 1   
    29    15    43 1   
    30    15    44 1   
    31    15    45 1   
    32    16    32 ar  
    33    16    35 ar  
    34    17    31 2   
    35    18    46 1   
    36    18    47 1   
    37    19    20 1   
    38    19    48 1   
    39    19    49 1   
    40    20    21 1   
    41    20    50 1   
    42    20    51 1   
    43    21    22 1   
    44    21    29 1   
    45    21    52 1   
    46    22    23 1   
    47    22    53 1   
    48    22    54 1   
    49    23    24 1   
    50    23    55 1   
    51    23    56 1   
    52    24    25 1   
    53    24    27 2   
    54    25    26 1   
    55    26    57 1   
    56    26    58 1   
    57    26    59 1   
    58    27    28 1   
    59    28    60 1   
    60    28    61 1   
    61    28    62 1   
    62    29    30 1   
    63    29    63 1   
    64    29    64 1   
    65    30    65 1   
    66    30    66 1   
    67    31    67 1   
    68    33    34 ar  
    69    33    68 1   
    70    34    35 ar  
    71    35    69 1   
@<TRIPOS>SUBSTRUCTURE
     1 QHF         1 TEMP              0 ****  ****    0 ROOT
