@<TRIPOS>MOLECULE
QHG
   50    52     1     0     0
SMALL
abcg2


@<TRIPOS>ATOM
      1 C1           0.6120    -5.2030     0.5290 c3         1 QHG      -0.085600
      2 C2           1.2650    -4.0440    -0.2170 c3         1 QHG      -0.057700
      3 C3           0.4850    -3.6930    -1.4780 c3         1 QHG      -0.085600
      4 C4           1.3750    -2.8440     0.7250 c3         1 QHG       0.174800
      5 N5           1.9080    -1.6430     0.1080 n3         1 QHG      -0.726600
      6 C6           3.3210    -1.7400    -0.1910 c6         1 QHG       0.177800
      7 C7           3.7190    -0.6230    -1.1330 c6         1 QHG      -0.033100
      8 C8           3.3360     0.7050    -0.5520 ca         1 QHG      -0.029300
      9 C9           3.9990     1.8650    -0.9500 ca         1 QHG      -0.211000
     10 C10          3.6870     3.0950    -0.3890 ca         1 QHG       0.131100
     11 C11          2.7050     3.1630     0.6000 ca         1 QHG      -0.146000
     12 C12          2.0480     2.0110     0.9850 ca         1 QHG      -0.058000
     13 C13          2.3380     0.7710     0.4150 ca         1 QHG      -0.099300
     14 C14          1.5700    -0.4580     0.8760 c6         1 QHG       0.297100
     15 C15          0.0840    -0.1820     0.7700 ca         1 QHG      -0.129300
     16 C16         -0.6840     0.0780     1.8960 ca         1 QHG      -0.096500
     17 C17         -2.0350     0.3810     1.7810 ca         1 QHG      -0.130000
     18 C18         -2.6610     0.4260     0.5350 ca         1 QHG       0.009200
     19 C19         -1.8810     0.1450    -0.5950 ca         1 QHG      -0.130000
     20 C20         -0.5370    -0.1520    -0.4790 ca         1 QHG      -0.096500
     21 C21         -4.0840     0.7600     0.4680 ce         1 QHG      -0.244200
     22 C22         -4.8380     0.8770    -0.6280 cf         1 QHG      -0.209200
     23 C23         -6.3040     1.2410    -0.5870 c          1 QHG       0.695200
     24 O24         -6.8270     1.4350     0.5290 o          1 QHG      -0.723000
     25 O25         -6.8670     1.3180    -1.6990 o          1 QHG      -0.723000
     26 O26          4.3020     4.2420    -0.7450 oh         1 QHG      -0.539100
     27 H11C         1.1710    -5.4680     1.4290 hc         1 QHG       0.034033
     28 H12C        -0.4050    -4.9460     0.8350 hc         1 QHG       0.034033
     29 H13C         0.5540    -6.0930    -0.0980 hc         1 QHG       0.034033
     30 H2           2.2680    -4.3680    -0.5120 hc         1 QHG       0.031700
     31 H31C        -0.5260    -3.3600    -1.2300 hc         1 QHG       0.034033
     32 H32C         0.9660    -2.8880    -2.0320 hc         1 QHG       0.034033
     33 H33C         0.4000    -4.5580    -2.1380 hc         1 QHG       0.034033
     34 H41C         0.3670    -2.6210     1.0850 h1         1 QHG       0.036200
     35 H42C         1.9610    -3.1310     1.6170 h1         1 QHG       0.036200
     36 H61C         3.9450    -1.7070     0.7190 h1         1 QHG       0.027200
     37 H62C         3.5180    -2.6990    -0.6690 h1         1 QHG       0.027200
     38 H14          1.8040    -0.6070     1.9480 h1         1 QHG       0.026700
     39 H71C         4.7930    -0.6540    -1.3260 hc         1 QHG       0.051200
     40 H72C         3.2210    -0.7740    -2.0960 hc         1 QHG       0.051200
     41 H9           4.7760     1.7950    -1.7050 ha         1 QHG       0.102000
     42 H11          2.4640     4.1140     1.0600 ha         1 QHG       0.126000
     43 H26          4.9580     4.0720    -1.4310 ho         1 QHG       0.457000
     44 H12          1.2860     2.0820     1.7510 ha         1 QHG       0.126000
     45 H16         -0.2260     0.0440     2.8780 ha         1 QHG       0.101500
     46 H20          0.0440    -0.3730    -1.3650 ha         1 QHG       0.101500
     47 H17         -2.6130     0.5820     2.6750 ha         1 QHG       0.114000
     48 H19         -2.3280     0.1620    -1.5810 ha         1 QHG       0.114000
     49 H21         -4.5630     0.9360     1.4270 ha         1 QHG       0.190000
     50 H22         -4.4110     0.7140    -1.6130 ha         1 QHG       0.144000
@<TRIPOS>BOND
     1     1     2 1   
     2     1    27 1   
     3     1    28 1   
     4     1    29 1   
     5     2     3 1   
     6     2     4 1   
     7     2    30 1   
     8     3    31 1   
     9     3    32 1   
    10     3    33 1   
    11     4     5 1   
    12     4    34 1   
    13     4    35 1   
    14     5     6 1   
    15     5    14 1   
    16     6     7 1   
    17     6    36 1   
    18     6    37 1   
    19     7     8 1   
    20     7    39 1   
    21     7    40 1   
    22     8     9 ar  
    23     8    13 ar  
    24     9    10 ar  
    25     9    41 1   
    26    10    11 ar  
    27    10    26 1   
    28    11    12 ar  
    29    11    42 1   
    30    12    13 ar  
    31    12    44 1   
    32    13    14 1   
    33    14    15 1   
    34    14    38 1   
    35    15    16 ar  
    36    15    20 ar  
    37    16    17 ar  
    38    16    45 1   
    39    17    18 ar  
    40    17    47 1   
    41    18    19 ar  
    42    18    21 1   
    43    19    20 ar  
    44    19    48 1   
    45    20    46 1   
    46    21    22 2   
    47    21    49 1   
    48    22    23 1   
    49    22    50 1   
    50    23    24 1   
    51    23    25 1   
    52    26    43 1   
@<TRIPOS>SUBSTRUCTURE
     1 QHG         1 TEMP              0 ****  ****    0 ROOT
