@<TRIPOS>MOLECULE
QHG
   50    52     1     0     0
SMALL
No Charge or Current Charge


@<TRIPOS>ATOM
      1 C1           0.5850    -5.3010     0.5600 c3         1 QHG      -0.085600
      2 C2           1.2800    -4.1420    -0.1880 c3         1 QHG      -0.057700
      3 C3           0.6730    -3.9510    -1.5990 c3         1 QHG      -0.085600
      4 C4           1.2360    -2.8350     0.6550 c3         1 QHG       0.174800
      5 N5           1.8770    -1.6380     0.0410 n3         1 QHG      -0.726600
      6 C6           3.3450    -1.7780    -0.1410 c6         1 QHG       0.177800
      7 C7           3.9080    -0.6350    -1.0090 c6         1 QHG      -0.033100
      8 C8           3.4750     0.7400    -0.5140 ca         1 QHG      -0.029300
      9 C9           4.1990     1.8830    -0.9040 ca         1 QHG      -0.211000
     10 C10          3.8150     3.1510    -0.4470 ca         1 QHG       0.131100
     11 C11          2.7100     3.2840     0.4040 ca         1 QHG      -0.146000
     12 C12          1.9810     2.1480     0.7940 ca         1 QHG      -0.058000
     13 C13          2.3480     0.8660     0.3290 ca         1 QHG      -0.099300
     14 C14          1.5420    -0.3760     0.7740 c6         1 QHG       0.297100
     15 C15          0.0320    -0.0830     0.7160 ca         1 QHG      -0.129300
     16 C16         -0.7310    -0.0270     1.8970 ca         1 QHG      -0.096500
     17 C17         -2.1100     0.2420     1.8390 ca         1 QHG      -0.130000
     18 C18         -2.7480     0.4600     0.6030 ca         1 QHG       0.009200
     19 C19         -1.9810     0.4030    -0.5790 ca         1 QHG      -0.130000
     20 C20         -0.6020     0.1340    -0.5220 ca         1 QHG      -0.096500
     21 C21         -4.2120     0.7440     0.5760 ce         1 QHG      -0.244200
     22 C22         -5.0320     0.9840    -0.4960 cf         1 QHG      -0.209200
     23 C23         -6.4990     1.2600    -0.4220 c          1 QHG       0.695200
     24 O24         -7.0450     1.2810     0.6710 o          1 QHG      -0.723000
     25 O25         -7.0890     1.4550    -1.4730 o          1 QHG      -0.723000
     26 O26          4.5180     4.2550    -0.8240 oh         1 QHG      -0.539100
     27 H11C         1.0510    -5.4640     1.5400 hc         1 QHG       0.034033
     28 H12C        -0.4780    -5.0830     0.7180 hc         1 QHG       0.034033
     29 H13C         0.6640    -6.2350    -0.0100 hc         1 QHG       0.034033
     30 H2           2.3270    -4.4410    -0.3150 hc         1 QHG       0.031700
     31 H31C        -0.3740    -3.6310    -1.5320 hc         1 QHG       0.034033
     32 H32C         1.2270    -3.1940    -2.1660 hc         1 QHG       0.034033
     33 H33C         0.7100    -4.8880    -2.1670 hc         1 QHG       0.034033
     34 H41C         0.1760    -2.6280     0.8520 h1         1 QHG       0.036200
     35 H42C         1.6990    -3.0360     1.6320 h1         1 QHG       0.036200
     36 H61C         3.8500    -1.7750     0.8370 h1         1 QHG       0.027200
     37 H62C         3.6000    -2.7250    -0.6340 h1         1 QHG       0.027200
     38 H14          1.8050    -0.5270     1.8320 h1         1 QHG       0.026700
     39 H71C         5.0040    -0.7040    -1.0310 hc         1 QHG       0.051200
     40 H72C         3.5670    -0.7670    -2.0440 hc         1 QHG       0.051200
     41 H9           5.0600     1.7760    -1.5600 ha         1 QHG       0.102000
     42 H11          2.4160     4.2670     0.7630 ha         1 QHG       0.126000
     43 H26          5.2480     3.9670    -1.4120 ho         1 QHG       0.457000
     44 H12          1.1280     2.2680     1.4580 ha         1 QHG       0.126000
     45 H16         -0.2580    -0.1930     2.8630 ha         1 QHG       0.101500
     46 H20         -0.0230     0.0910    -1.4420 ha         1 QHG       0.101500
     47 H17         -2.6820     0.2810     2.7630 ha         1 QHG       0.114000
     48 H19         -2.4420     0.5650    -1.5480 ha         1 QHG       0.114000
     49 H21         -4.6720     0.7550     1.5670 ha         1 QHG       0.190000
     50 H22         -4.6170     0.9820    -1.5000 ha         1 QHG       0.144000
@<TRIPOS>BOND
     1     1     2 1   
     2     1    27 1   
     3     1    28 1   
     4     1    29 1   
     5     2     3 1   
     6     2     4 1   
     7     2    30 1   
     8     3    31 1   
     9     3    32 1   
    10     3    33 1   
    11     4     5 1   
    12     4    34 1   
    13     4    35 1   
    14     5     6 1   
    15     5    14 1   
    16     6     7 1   
    17     6    36 1   
    18     6    37 1   
    19     7     8 1   
    20     7    39 1   
    21     7    40 1   
    22     8     9 ar  
    23     8    13 ar  
    24     9    10 ar  
    25     9    41 1   
    26    10    11 ar  
    27    10    26 1   
    28    11    12 ar  
    29    11    42 1   
    30    12    13 ar  
    31    12    44 1   
    32    13    14 1   
    33    14    15 1   
    34    14    38 1   
    35    15    16 ar  
    36    15    20 ar  
    37    16    17 ar  
    38    16    45 1   
    39    17    18 ar  
    40    17    47 1   
    41    18    19 ar  
    42    18    21 1   
    43    19    20 ar  
    44    19    48 1   
    45    20    46 1   
    46    21    22 2   
    47    21    49 1   
    48    22    23 1   
    49    22    50 1   
    50    23    24 1   
    51    23    25 1   
    52    26    43 1   
@<TRIPOS>SUBSTRUCTURE
     1 QHG         1 TEMP              0 ****  ****    0 ROOT
