@<TRIPOS>MOLECULE
QHI
   39    42     1     0     0
SMALL
No Charge or Current Charge


@<TRIPOS>ATOM
      1 N1         -17.0110     4.6060    24.7510 nb         1 QHI      -0.651000
      2 C4         -23.0010     7.9160    28.5840 c6         1 QHI       0.158600
      3 C5         -23.0170     6.8370    27.4830 c6         1 QHI      -0.107400
      4 C6         -22.1340     5.6410    27.9170 c6         1 QHI      -0.086400
      5 C7         -20.6300     5.9220    27.6640 c          1 QHI       0.594100
      6 C8         -18.8770     5.7390    25.8350 ca         1 QHI      -0.077000
      7 C10        -16.3460     5.7830    24.7300 ca         1 QHI       0.359900
      8 C13        -16.7130     9.3820    25.6180 ca         1 QHI      -0.106000
      9 C15        -18.7480     8.1940    26.2330 ca         1 QHI      -0.089000
     10 C17        -22.4090     5.2390    29.3730 ca         1 QHI      -0.140300
     11 O1         -19.8900     6.3470    28.5440 o          1 QHI      -0.560100
     12 O          -23.4930     7.3770    29.8300 os         1 QHI      -0.327100
     13 C3         -23.0670     6.1300    30.2580 ca         1 QHI       0.175100
     14 C2         -23.3270     5.7330    31.5870 ca         1 QHI       0.091000
     15 Cl1        -24.1600     6.8140    32.7060 cl         1 QHI      -0.180000
     16 C1         -22.9210     4.4660    32.0380 ca         1 QHI      -0.055000
     17 C18        -22.0080     3.9700    29.8360 ca         1 QHI      -0.054000
     18 C          -22.2620     3.5880    31.1640 ca         1 QHI       0.093000
     19 Cl         -21.7560     2.0020    31.7310 cl         1 QHI      -0.200000
     20 N          -20.1740     5.5900    26.3980 ns         1 QHI      -0.169000
     21 C16        -18.1880     6.9770    25.7820 ca         1 QHI      -0.001000
     22 C14        -18.0100     9.3880    26.1540 ca         1 QHI      -0.091000
     23 C12        -16.1530     8.1830    25.1480 ca         1 QHI      -0.083000
     24 C11        -16.8900     6.9850    25.2230 ca         1 QHI      -0.090000
     25 C9         -18.2510     4.5980    25.2900 ca         1 QHI       0.310900
     26 H2         -23.6260     8.7720    28.2940 h1         1 QHI       0.071700
     27 H3         -22.6740     7.2570    26.5270 hc         1 QHI       0.065200
     28 H4         -24.0520     6.5020    27.3250 hc         1 QHI       0.065200
     29 H5         -22.4160     4.8300    27.2300 hc         1 QHI       0.068700
     30 H6         -15.3490     5.7610    24.2910 h4         1 QHI       0.023100
     31 H7         -16.1450    10.3080    25.5580 ha         1 QHI       0.119000
     32 H8         -19.7560     8.2350    26.6340 ha         1 QHI       0.116000
     33 H9         -23.1190     4.1640    33.0630 ha         1 QHI       0.147000
     34 H10        -21.5010     3.2760    29.1690 ha         1 QHI       0.128000
     35 H11        -20.8630     5.1710    25.7850 hn         1 QHI       0.156000
     36 H12        -18.4480    10.3200    26.5050 ha         1 QHI       0.116000
     37 H13        -15.1510     8.1880    24.7220 ha         1 QHI       0.119000
     38 H14        -18.7580     3.6330    25.3020 h4         1 QHI       0.021100
     39 H1         -21.9760     8.2830    28.7370 h1         1 QHI       0.071700
@<TRIPOS>BOND
     1     1     7 ar  
     2     1    25 ar  
     3     2     3 1   
     4     2    12 1   
     5     2    26 1   
     6     2    39 1   
     7     3     4 1   
     8     3    27 1   
     9     3    28 1   
    10     4     5 1   
    11     4    10 1   
    12     4    29 1   
    13     5    11 2   
    14     5    20 1   
    15     6    20 1   
    16     6    21 ar  
    17     6    25 ar  
    18     7    24 ar  
    19     7    30 1   
    20     8    22 ar  
    21     8    23 ar  
    22     8    31 1   
    23     9    21 ar  
    24     9    22 ar  
    25     9    32 1   
    26    10    13 ar  
    27    10    17 ar  
    28    12    13 1   
    29    13    14 ar  
    30    14    15 1   
    31    14    16 ar  
    32    16    18 ar  
    33    16    33 1   
    34    17    18 ar  
    35    17    34 1   
    36    18    19 1   
    37    20    35 1   
    38    21    24 ar  
    39    22    36 1   
    40    23    24 ar  
    41    23    37 1   
    42    25    38 1   
@<TRIPOS>SUBSTRUCTURE
     1 QHI         1 TEMP              0 ****  ****    0 ROOT
