@<TRIPOS>MOLECULE
QHI
   39    42     1     0     0
SMALL
abcg2


@<TRIPOS>ATOM
      1 N1         -16.8790     4.6220    25.0820 nb         1 QHI      -0.651000
      2 C4         -22.6520     7.9500    28.6530 c6         1 QHI       0.158600
      3 C5         -22.8590     6.9410    27.5460 c6         1 QHI      -0.107400
      4 C6         -22.1120     5.6350    27.8750 c6         1 QHI      -0.086400
      5 C7         -20.6130     5.8270    27.6440 c          1 QHI       0.594100
      6 C8         -18.8690     5.6800    25.9280 ca         1 QHI      -0.077000
      7 C10        -16.3090     5.8010    24.9810 ca         1 QHI       0.359900
      8 C13        -16.9610     9.4260    25.4870 ca         1 QHI      -0.106000
      9 C15        -18.9480     8.1800    26.1050 ca         1 QHI      -0.089000
     10 C17        -22.3950     5.2230    29.2980 ca         1 QHI      -0.140300
     11 O1         -19.8620     6.2730    28.5020 o          1 QHI      -0.560100
     12 O          -23.1310     7.4510    29.9190 os         1 QHI      -0.327100
     13 C3         -22.8800     6.1580    30.2200 ca         1 QHI       0.175100
     14 C2         -23.1520     5.7330    31.5280 ca         1 QHI       0.091000
     15 CL1        -23.7700     6.8830    32.6850 cl         1 QHI      -0.180000
     16 C1         -22.9420     4.4250    31.9270 ca         1 QHI      -0.055000
     17 C18        -22.1840     3.9050    29.6960 ca         1 QHI      -0.054000
     18 C          -22.4520     3.5180    30.9970 ca         1 QHI       0.093000
     19 CL         -22.1800     1.8590    31.4840 cl         1 QHI      -0.200000
     20 N          -20.2010     5.5190    26.3880 ns         1 QHI      -0.169000
     21 C16        -18.2850     6.9680    25.8040 ca         1 QHI      -0.001000
     22 C14        -18.2960     9.3770    25.9480 ca         1 QHI      -0.091000
     23 C12        -16.2990     8.2670    25.1750 ca         1 QHI      -0.083000
     24 C11        -16.9470     7.0180    25.3220 ca         1 QHI      -0.090000
     25 C9         -18.1470     4.5720    25.5610 ca         1 QHI       0.310900
     26 H2         -23.2180     8.8610    28.4770 h1         1 QHI       0.071700
     27 H3         -22.5110     7.3580    26.6000 hc         1 QHI       0.065200
     28 H4         -23.9240     6.7220    27.4410 hc         1 QHI       0.065200
     29 H5         -22.4670     4.8500    27.2050 hc         1 QHI       0.068700
     30 H6         -15.2890     5.8310    24.6090 h4         1 QHI       0.023100
     31 H7         -16.4680    10.3830    25.3750 ha         1 QHI       0.119000
     32 H8         -19.9690     8.1610    26.4550 ha         1 QHI       0.116000
     33 H9         -23.1560     4.1230    32.9420 ha         1 QHI       0.147000
     34 H10        -21.8120     3.1860    28.9780 ha         1 QHI       0.128000
     35 H11        -20.8500     5.0420    25.7790 hn         1 QHI       0.156000
     36 H12        -18.8100    10.3020    26.1800 ha         1 QHI       0.116000
     37 H13        -15.2800     8.2880    24.8110 ha         1 QHI       0.119000
     38 H14        -18.5950     3.5880    25.6480 h4         1 QHI       0.021100
     39 H1         -21.5950     8.2000    28.7650 h1         1 QHI       0.071700
@<TRIPOS>BOND
     1     1     7 ar  
     2     1    25 ar  
     3     2     3 1   
     4     2    12 1   
     5     2    26 1   
     6     2    39 1   
     7     3     4 1   
     8     3    27 1   
     9     3    28 1   
    10     4     5 1   
    11     4    10 1   
    12     4    29 1   
    13     5    11 2   
    14     5    20 1   
    15     6    20 1   
    16     6    21 ar  
    17     6    25 ar  
    18     7    24 ar  
    19     7    30 1   
    20     8    22 ar  
    21     8    23 ar  
    22     8    31 1   
    23     9    21 ar  
    24     9    22 ar  
    25     9    32 1   
    26    10    13 ar  
    27    10    17 ar  
    28    12    13 1   
    29    13    14 ar  
    30    14    15 1   
    31    14    16 ar  
    32    16    18 ar  
    33    16    33 1   
    34    17    18 ar  
    35    17    34 1   
    36    18    19 1   
    37    20    35 1   
    38    21    24 ar  
    39    22    36 1   
    40    23    24 ar  
    41    23    37 1   
    42    25    38 1   
@<TRIPOS>SUBSTRUCTURE
     1 QHI         1 TEMP              0 ****  ****    0 ROOT
