@<TRIPOS>MOLECULE
QHJ
   98   103     1     0     0
SMALL
bcc


@<TRIPOS>ATOM
      1 N1          48.7950     2.3670    21.8630 n          1 QHJ      -0.528400
      2 C4          44.7340    -2.4260    31.4950 ca         1 QHJ      -0.112000
      3 C5          43.7280    -2.1470    30.5710 cp         1 QHJ      -0.027000
      4 C6          43.3380    -0.7550    30.2500 cp         1 QHJ      -0.046000
      5 C7          44.2530     0.1990    29.7840 ca         1 QHJ      -0.068300
      6 C8          45.7080    -0.1220    29.5240 c3         1 QHJ       0.212100
      7 C10         46.1470     0.6080    25.8850 ca         1 QHJ      -0.066300
      8 C13         47.0900     1.7510    23.5240 ca         1 QHJ      -0.138600
      9 C15         49.4300     3.2800    20.9710 c          1 QHJ       0.797100
     10 C17         48.2370     5.4040    18.2430 c3         1 QHJ      -0.121600
     11 C20         50.5430     1.3830    15.6470 c6         1 QHJ      -0.079400
     12 C21         50.6060     0.6240    14.3150 c6         1 QHJ      -0.069400
     13 C22         49.2220     0.1440    13.8590 c6         1 QHJ      -0.074400
     14 C24         48.0620     1.1070    15.8820 c6         1 QHJ      -0.079400
     15 C26         49.6320     1.2210    22.2290 c3         1 QHJ       0.161300
     16 C28         49.0840     0.0120    20.0810 ca         1 QHJ      -0.105000
     17 C14         47.4930     2.4810    22.2900 c          1 QHJ       0.696700
     18 C27         50.0270     0.4080    21.0230 ca         1 QHJ      -0.092300
     19 C33         51.3450    -0.0020    20.8500 ca         1 QHJ      -0.105000
     20 C32         51.7100    -0.7860    19.7670 ca         1 QHJ      -0.134000
     21 C30         50.7720    -1.1810    18.8150 ca         1 QHJ      -0.083300
     22 C31         51.1770    -2.0160    17.6360 c3         1 QHJ      -0.042800
     23 C29         49.4540    -0.7700    18.9940 ca         1 QHJ      -0.134000
     24 O4          50.6460     3.2730    20.9040 o          1 QHJ      -0.631100
     25 N2          48.6340     4.0540    20.2320 ns         1 QHJ      -0.539900
     26 C16         49.1550     5.1260    19.4290 c3         1 QHJ      -0.027300
     27 C25         49.3840     6.4490    20.2360 c          1 QHJ       0.935600
     28 O3          49.2910     6.3700    21.4680 o          1 QHJ      -0.808300
     29 O2          49.6580     7.4420    19.5390 o          1 QHJ      -0.808300
     30 O           46.8520     3.1330    18.0520 o          1 QHJ      -0.620800
     31 O1          47.2730     4.4710    15.9790 o          1 QHJ      -0.620800
     32 C18         49.2960     3.0710    16.9810 c3         1 QHJ      -0.181600
     33 C19         49.2130     2.1230    15.7880 c6         1 QHJ      -0.026700
     34 C23         48.3430    -0.1620    15.0640 c6         1 QHJ      -0.069400
     35 C12         45.8880     1.0460    23.5240 ca         1 QHJ      -0.083000
     36 C11         45.4380     0.4670    24.6940 ca         1 QHJ      -0.140000
     37 C34         47.8070     1.8820    24.7070 ca         1 QHJ      -0.091000
     38 C35         47.3420     1.3250    25.8940 ca         1 QHJ      -0.078300
     39 C9          45.6220    -0.0330    27.1390 c6         1 QHJ       0.207100
     40 C36         48.1050     1.5080    27.1770 c6         1 QHJ      -0.027100
     41 C37         47.6540     0.5280    28.2470 c6         1 QHJ       0.170800
     42 N           46.2060     0.5380    28.3340 n3         1 QHJ      -0.718600
     43 C38         43.8000     1.4940    29.5350 ca         1 QHJ      -0.105000
     44 C39         42.4750     1.8480    29.7260 ca         1 QHJ      -0.125000
     45 C40         41.5650     0.8970    30.1690 ca         1 QHJ      -0.131000
     46 C41         42.0000    -0.3910    30.4270 ca         1 QHJ      -0.123000
     47 C2          43.0570    -3.2180    29.9820 ca         1 QHJ      -0.112000
     48 C1          43.3810    -4.5290    30.2960 ca         1 QHJ      -0.123500
     49 C3          45.0690    -3.7300    31.8220 ca         1 QHJ      -0.123500
     50 C           44.3880    -4.7740    31.2160 ca         1 QHJ       0.026400
     51 CL          44.7990    -6.4100    31.6170 cl         1 QHJ      -0.118400
     52 H2          45.8550    -1.2110    29.4690 h1         1 QHJ       0.040700
     53 H3          46.3050     0.2230    30.3740 h1         1 QHJ       0.040700
     54 H4          48.7190     6.1020    17.5620 h1         1 QHJ       0.113700
     55 H5          47.2800     5.8350    18.5540 h1         1 QHJ       0.113700
     56 H6          50.6440     0.6880    16.4870 hc         1 QHJ       0.049700
     57 H7          51.3830     2.0780    15.7250 hc         1 QHJ       0.049700
     58 H8          51.0460     1.2620    13.5450 hc         1 QHJ       0.030700
     59 H9          51.2790    -0.2300    14.4250 hc         1 QHJ       0.030700
     60 H10         48.7380     0.9120    13.2490 hc         1 QHJ       0.034200
     61 H11         49.3200    -0.7340    13.2170 hc         1 QHJ       0.034200
     62 H12         47.8900     0.8350    16.9250 hc         1 QHJ       0.049700
     63 H13         47.1400     1.5750    15.5310 hc         1 QHJ       0.049700
     64 H14         49.0590     0.5900    22.9050 h1         1 QHJ       0.058200
     65 H15         50.5140     1.5480    22.7770 h1         1 QHJ       0.058200
     66 H16         48.0470     0.3090    20.1860 ha         1 QHJ       0.137000
     67 H17         52.0970     0.3010    21.5690 ha         1 QHJ       0.137000
     68 H18         52.7460    -1.0880    19.6560 ha         1 QHJ       0.123500
     69 H19         51.6380    -2.9530    17.9510 hc         1 QHJ       0.036367
     70 H20         50.3220    -2.2600    17.0060 hc         1 QHJ       0.036367
     71 H21         51.9070    -1.4960    17.0130 hc         1 QHJ       0.036367
     72 H22         48.7010    -1.0670    18.2730 ha         1 QHJ       0.123500
     73 H23         47.6420     4.0230    20.4330 hn         1 QHJ       0.354500
     74 H24         50.1310     4.8230    19.0430 h1         1 QHJ       0.062700
     75 H26         49.5290     2.5360    17.9050 h1         1 QHJ       0.103700
     76 H27         50.0720     3.8210    16.8110 h1         1 QHJ       0.103700
     77 H28         49.0750     2.7370    14.8920 hc         1 QHJ       0.060700
     78 H29         47.4000    -0.6170    14.7540 hc         1 QHJ       0.030700
     79 H30         48.8450    -0.9050    15.6910 hc         1 QHJ       0.030700
     80 H31         45.3140     0.9460    22.6120 ha         1 QHJ       0.149000
     81 H32         44.5090    -0.0920    24.6910 ha         1 QHJ       0.127000
     82 H33         48.7360     2.4410    24.7180 ha         1 QHJ       0.149000
     83 H34         44.5360     0.0880    27.1730 h1         1 QHJ       0.043200
     84 H35         45.8070    -1.1210    27.0840 h1         1 QHJ       0.043200
     85 H36         49.1760     1.3950    26.9960 hc         1 QHJ       0.058700
     86 H37         47.9570     2.5290    27.5410 hc         1 QHJ       0.058700
     87 H38         48.0440    -0.4800    28.0270 h1         1 QHJ       0.030700
     88 H39         48.0720     0.8250    29.2100 h1         1 QHJ       0.030700
     89 H41         44.5040     2.2280    29.1620 ha         1 QHJ       0.158000
     90 H42         42.1520     2.8610    29.5240 ha         1 QHJ       0.135000
     91 H43         40.5250     1.1570    30.3180 ha         1 QHJ       0.130000
     92 H44         41.2970    -1.1330    30.7850 ha         1 QHJ       0.129000
     93 H45         42.2750    -3.0310    29.2570 ha         1 QHJ       0.139500
     94 H46         42.8540    -5.3480    29.8250 ha         1 QHJ       0.146000
     95 H47         45.8490    -3.9270    32.5450 ha         1 QHJ       0.146000
     96 O5          46.6620     3.1800    21.7330 o          1 QHJ      -0.556100
     97 S           47.7650     3.9680    17.2660 s6         1 QHJ       0.944000
     98 H1          45.2590    -1.6130    31.9830 ha         1 QHJ       0.139500
@<TRIPOS>BOND
     1     1     9 1   
     2     1    15 1   
     3     1    17 1   
     4     2     3 ar  
     5     2    49 ar  
     6     2    98 1   
     7     3     4 1   
     8     3    47 ar  
     9     4     5 ar  
    10     4    46 ar  
    11     5     6 1   
    12     5    43 ar  
    13     6    42 1   
    14     6    52 1   
    15     6    53 1   
    16     7    36 ar  
    17     7    38 ar  
    18     7    39 1   
    19     8    17 1   
    20     8    35 ar  
    21     8    37 ar  
    22     9    24 2   
    23     9    25 1   
    24    10    26 1   
    25    10    54 1   
    26    10    55 1   
    27    10    97 1   
    28    11    12 1   
    29    11    33 1   
    30    11    56 1   
    31    11    57 1   
    32    12    13 1   
    33    12    58 1   
    34    12    59 1   
    35    13    34 1   
    36    13    60 1   
    37    13    61 1   
    38    14    33 1   
    39    14    34 1   
    40    14    62 1   
    41    14    63 1   
    42    15    18 1   
    43    15    64 1   
    44    15    65 1   
    45    16    18 ar  
    46    16    23 ar  
    47    16    66 1   
    48    17    96 2   
    49    18    19 ar  
    50    19    20 ar  
    51    19    67 1   
    52    20    21 ar  
    53    20    68 1   
    54    21    22 1   
    55    21    23 ar  
    56    22    69 1   
    57    22    70 1   
    58    22    71 1   
    59    23    72 1   
    60    25    26 1   
    61    25    73 1   
    62    26    27 1   
    63    26    74 1   
    64    27    28 1   
    65    27    29 1   
    66    30    97 2   
    67    31    97 2   
    68    32    33 1   
    69    32    75 1   
    70    32    76 1   
    71    32    97 1   
    72    33    77 1   
    73    34    78 1   
    74    34    79 1   
    75    35    36 ar  
    76    35    80 1   
    77    36    81 1   
    78    37    38 ar  
    79    37    82 1   
    80    38    40 1   
    81    39    42 1   
    82    39    83 1   
    83    39    84 1   
    84    40    41 1   
    85    40    85 1   
    86    40    86 1   
    87    41    42 1   
    88    41    87 1   
    89    41    88 1   
    90    43    44 ar  
    91    43    89 1   
    92    44    45 ar  
    93    44    90 1   
    94    45    46 ar  
    95    45    91 1   
    96    46    92 1   
    97    47    48 ar  
    98    47    93 1   
    99    48    50 ar  
   100    48    94 1   
   101    49    50 ar  
   102    49    95 1   
   103    50    51 1   
@<TRIPOS>SUBSTRUCTURE
     1 QHJ         1 TEMP              0 ****  ****    0 ROOT
