@<TRIPOS>MOLECULE
QHJ
   98   103     1     0     0
SMALL
No Charge or Current Charge


@<TRIPOS>ATOM
      1 N1          48.5770     2.2680    21.8010 n          1 QHJ      -0.394400
      2 C4          44.7750    -2.7730    30.2350 ca         1 QHJ      -0.094000
      3 C5          43.9250    -1.8700    29.5500 cp         1 QHJ      -0.027000
      4 C6          43.5860    -0.5380    30.1270 cp         1 QHJ      -0.046000
      5 C7          44.5600     0.4860    30.3230 ca         1 QHJ      -0.068300
      6 C8          46.0340     0.3150    29.9410 c3         1 QHJ       0.212100
      7 C10         46.0660     0.8100    26.1130 ca         1 QHJ      -0.066300
      8 C13         46.8390     1.6800    23.5280 ca         1 QHJ      -0.138600
      9 C15         49.1290     3.2200    20.9230 c          1 QHJ       0.663100
     10 C17         47.6710     5.3340    18.2270 c3         1 QHJ      -0.232400
     11 C20         50.6610     1.3820    16.0050 c6         1 QHJ      -0.079400
     12 C21         50.8730     0.3740    14.8380 c6         1 QHJ      -0.069400
     13 C22         49.5730    -0.3720    14.4230 c6         1 QHJ      -0.074400
     14 C24         48.2220     0.7130    16.3300 c6         1 QHJ      -0.079400
     15 C26         49.4820     1.1680    22.2360 c3         1 QHJ       0.161300
     16 C28         48.9870    -0.5310    20.4040 ca         1 QHJ      -0.087000
     17 C14         47.2110     2.1630    22.1400 c          1 QHJ       0.629700
     18 C27         49.9290     0.2490    21.1020 ca         1 QHJ      -0.092300
     19 C33         51.2910     0.1570    20.7560 ca         1 QHJ      -0.087000
     20 C32         51.7060    -0.7090    19.7300 ca         1 QHJ      -0.116000
     21 C30         50.7670    -1.4970    19.0410 ca         1 QHJ      -0.083300
     22 C31         51.2340    -2.4460    17.9480 c3         1 QHJ      -0.042800
     23 C29         49.4040    -1.4000    19.3800 ca         1 QHJ      -0.116000
     24 O4          50.3270     3.2660    20.6860 o          1 QHJ      -0.631100
     25 N2          48.2670     4.1330    20.3630 ns         1 QHJ      -0.472900
     26 C16         48.6540     5.2150    19.4270 c3         1 QHJ      -0.027300
     27 C25         48.7890     6.5670    20.1990 c          1 QHJ       0.725000
     28 O3          47.7950     7.0250    20.7480 o          1 QHJ      -0.703000
     29 O2          49.8870     7.1030    20.2380 o          1 QHJ      -0.703000
     30 O           46.5460     2.9380    17.9860 o          1 QHJ      -0.550000
     31 O1          47.0200     4.2710    15.8900 o          1 QHJ      -0.550000
     32 C18         49.0510     3.0540    17.0980 c3         1 QHJ      -0.292400
     33 C19         49.2010     1.9000    16.0610 c6         1 QHJ      -0.026700
     34 C23         48.6440    -0.6140    15.6350 c6         1 QHJ      -0.069400
     35 C12         45.6050     1.0250    23.7270 ca         1 QHJ      -0.065000
     36 C11         45.2270     0.5870    25.0070 ca         1 QHJ      -0.122000
     37 C34         47.6670     1.9240    24.6490 ca         1 QHJ      -0.073000
     38 C35         47.2920     1.4810    25.9310 ca         1 QHJ      -0.078300
     39 C9          45.6450     0.3070    27.5000 c6         1 QHJ       0.207100
     40 C36         48.1990     1.7620    27.1310 c6         1 QHJ      -0.027100
     41 C37         47.8430     0.9150    28.3760 c6         1 QHJ       0.170800
     42 N           46.3830     0.9270    28.6360 n3         1 QHJ      -0.718600
     43 C38         44.1640     1.7290    30.8590 ca         1 QHJ      -0.087000
     44 C39         42.8240     1.9720    31.2010 ca         1 QHJ      -0.107000
     45 C40         41.8590     0.9750    31.0040 ca         1 QHJ      -0.113000
     46 C41         42.2390    -0.2650    30.4670 ca         1 QHJ      -0.105000
     47 C2          43.3780    -2.2720    28.3080 ca         1 QHJ      -0.094000
     48 C1          43.6900    -3.5260    27.7540 ca         1 QHJ      -0.105500
     49 C3          45.0870    -4.0280    29.6820 ca         1 QHJ      -0.105500
     50 C           44.5470    -4.4010    28.4410 ca         1 QHJ       0.118000
     51 Cl          44.9390    -5.9690    27.7480 cl         1 QHJ      -0.210000
     52 H2          46.3090    -0.7460    29.9380 h1         1 QHJ       0.040700
     53 H3          46.6370     0.7810    30.7330 h1         1 QHJ       0.040700
     54 H4          48.0390     6.0930    17.5280 h1         1 QHJ       0.113700
     55 H5          46.6740     5.6320    18.5700 h1         1 QHJ       0.113700
     56 H6          50.9080     0.8950    16.9590 hc         1 QHJ       0.049700
     57 H7          51.3640     2.2190    15.8980 hc         1 QHJ       0.049700
     58 H8          51.2720     0.9020    13.9610 hc         1 QHJ       0.030700
     59 H9          51.6430    -0.3530    15.1280 hc         1 QHJ       0.030700
     60 H10         49.0340     0.2170    13.6680 hc         1 QHJ       0.034200
     61 H11         49.8280    -1.3270    13.9440 hc         1 QHJ       0.034200
     62 H12         48.1350     0.5310    17.4100 hc         1 QHJ       0.049700
     63 H13         47.2160     0.9920    15.9860 hc         1 QHJ       0.049700
     64 H14         48.9960     0.5300    22.9820 h1         1 QHJ       0.058200
     65 H15         50.3610     1.6090    22.7250 h1         1 QHJ       0.058200
     66 H16         47.9310    -0.4720    20.6590 ha         1 QHJ       0.119000
     67 H17         52.0310     0.7560    21.2820 ha         1 QHJ       0.119000
     68 H18         52.7620    -0.7730    19.4750 ha         1 QHJ       0.105500
     69 H19         52.0410    -3.0940    18.3090 hc         1 QHJ       0.036367
     70 H20         50.4220    -3.0950    17.5980 hc         1 QHJ       0.036367
     71 H21         51.6140    -1.8900    17.0830 hc         1 QHJ       0.036367
     72 H22         48.6660    -2.0000    18.8540 ha         1 QHJ       0.105500
     73 H23         47.2850     4.0060    20.5930 hn         1 QHJ       0.354500
     74 H24         49.6490     4.9890    19.0240 h1         1 QHJ       0.062700
     75 H26         49.2950     2.6840    18.0990 h1         1 QHJ       0.103700
     76 H27         49.7450     3.8620    16.8420 h1         1 QHJ       0.103700
     77 H28         48.9610     2.3370    15.0810 hc         1 QHJ       0.060700
     78 H29         47.7510    -1.1720    15.3230 hc         1 QHJ       0.030700
     79 H30         49.1640    -1.2540    16.3590 hc         1 QHJ       0.030700
     80 H31         44.9400     0.8450    22.8840 ha         1 QHJ       0.131000
     81 H32         44.2790     0.0710    25.1380 ha         1 QHJ       0.109000
     82 H33         48.6000     2.4730    24.5330 ha         1 QHJ       0.131000
     83 H34         44.5650     0.4830    27.6140 h1         1 QHJ       0.043200
     84 H35         45.7890    -0.7840    27.5130 h1         1 QHJ       0.043200
     85 H36         49.2500     1.5880    26.8630 hc         1 QHJ       0.058700
     86 H37         48.1200     2.8260    27.3920 hc         1 QHJ       0.058700
     87 H38         48.1880    -0.1180    28.2190 h1         1 QHJ       0.030700
     88 H39         48.3950     1.3130    29.2400 h1         1 QHJ       0.030700
     89 H41         44.9020     2.5160    31.0010 ha         1 QHJ       0.140000
     90 H42         42.5340     2.9370    31.6130 ha         1 QHJ       0.117000
     91 H43         40.8200     1.1620    31.2630 ha         1 QHJ       0.112000
     92 H44         41.4830    -1.0330    30.3160 ha         1 QHJ       0.111000
     93 H45         42.7140    -1.5990    27.7710 ha         1 QHJ       0.121500
     94 H46         43.2700    -3.8190    26.7960 ha         1 QHJ       0.128000
     95 H47         45.7450    -4.7100    30.2150 ha         1 QHJ       0.128000
     96 O5          46.3310     2.5550    21.3860 o          1 QHJ      -0.556100
     97 S           47.4250     3.8410    17.2340 s6         1 QHJ       1.024000
     98 H1          45.1900    -2.4940    31.2000 ha         1 QHJ       0.121500
@<TRIPOS>BOND
     1     1     9 1   
     2     1    15 1   
     3     1    17 1   
     4     2     3 ar  
     5     2    49 ar  
     6     2    98 1   
     7     3     4 1   
     8     3    47 ar  
     9     4     5 ar  
    10     4    46 ar  
    11     5     6 1   
    12     5    43 ar  
    13     6    42 1   
    14     6    52 1   
    15     6    53 1   
    16     7    36 ar  
    17     7    38 ar  
    18     7    39 1   
    19     8    17 1   
    20     8    35 ar  
    21     8    37 ar  
    22     9    24 2   
    23     9    25 1   
    24    10    26 1   
    25    10    54 1   
    26    10    55 1   
    27    10    97 1   
    28    11    12 1   
    29    11    33 1   
    30    11    56 1   
    31    11    57 1   
    32    12    13 1   
    33    12    58 1   
    34    12    59 1   
    35    13    34 1   
    36    13    60 1   
    37    13    61 1   
    38    14    33 1   
    39    14    34 1   
    40    14    62 1   
    41    14    63 1   
    42    15    18 1   
    43    15    64 1   
    44    15    65 1   
    45    16    18 ar  
    46    16    23 ar  
    47    16    66 1   
    48    17    96 2   
    49    18    19 ar  
    50    19    20 ar  
    51    19    67 1   
    52    20    21 ar  
    53    20    68 1   
    54    21    22 1   
    55    21    23 ar  
    56    22    69 1   
    57    22    70 1   
    58    22    71 1   
    59    23    72 1   
    60    25    26 1   
    61    25    73 1   
    62    26    27 1   
    63    26    74 1   
    64    27    28 1   
    65    27    29 1   
    66    30    97 2   
    67    31    97 2   
    68    32    33 1   
    69    32    75 1   
    70    32    76 1   
    71    32    97 1   
    72    33    77 1   
    73    34    78 1   
    74    34    79 1   
    75    35    36 ar  
    76    35    80 1   
    77    36    81 1   
    78    37    38 ar  
    79    37    82 1   
    80    38    40 1   
    81    39    42 1   
    82    39    83 1   
    83    39    84 1   
    84    40    41 1   
    85    40    85 1   
    86    40    86 1   
    87    41    42 1   
    88    41    87 1   
    89    41    88 1   
    90    43    44 ar  
    91    43    89 1   
    92    44    45 ar  
    93    44    90 1   
    94    45    46 ar  
    95    45    91 1   
    96    46    92 1   
    97    47    48 ar  
    98    47    93 1   
    99    48    50 ar  
   100    48    94 1   
   101    49    50 ar  
   102    49    95 1   
   103    50    51 1   
@<TRIPOS>SUBSTRUCTURE
     1 QHJ         1 TEMP              0 ****  ****    0 ROOT
