@<TRIPOS>MOLECULE
QHK
   48    51     1     0     0
SMALL
abcg2


@<TRIPOS>ATOM
      1 C1         -37.9380   -22.3280     5.7050 c3         1 QHK       0.035800
      2 C11        -39.6460   -17.7900     8.7960 cc         1 QHK      -0.108300
      3 C12        -40.9580   -18.2990     8.3530 cx         1 QHK      -0.020400
      4 C13        -41.6730   -17.5760     7.2420 cx         1 QHK      -0.130400
      5 C14        -42.2000   -17.5200     8.6380 cx         1 QHK      -0.130400
      6 C15        -38.7170   -19.5560     6.3540 ca         1 QHK      -0.107000
      7 C16        -41.2270   -22.0800     5.5660 ca         1 QHK      -0.291500
      8 C17        -41.2160   -23.1960     6.3960 ca         1 QHK      -0.013500
      9 C18        -42.0480   -23.2170     7.5050 ca         1 QHK      -0.137500
     10 C19        -42.8820   -22.1390     7.7730 ca         1 QHK      -0.066000
     11 C2         -36.4140   -22.0470     5.7240 c          1 QHK       0.734000
     12 C20        -42.8900   -21.0360     6.9310 ca         1 QHK      -0.137500
     13 C21        -42.0580   -20.9980     5.8210 ca         1 QHK      -0.013500
     14 C3         -38.5890   -20.0460     5.0600 ca         1 QHK       0.276000
     15 C4         -38.3100   -19.1720     4.0150 ca         1 QHK      -0.055000
     16 C5         -38.1560   -17.8190     4.2690 ca         1 QHK      -0.124000
     17 C6         -38.2620   -17.3250     5.5620 ca         1 QHK      -0.104000
     18 C7         -38.5400   -18.2000     6.6000 ca         1 QHK       0.037800
     19 C8         -37.8730   -16.8470     9.6970 cd         1 QHK       0.250900
     20 C9         -39.1960   -17.2380     9.9830 cd         1 QHK      -0.217600
     21 N1         -38.6740   -21.4440     4.8010 nh         1 QHK      -0.676300
     22 N2         -38.6030   -17.7150     7.9280 na         1 QHK       0.192000
     23 N3         -37.5190   -17.1420     8.4650 nc         1 QHK      -0.550800
     24 O1         -40.6110   -21.0150     3.2550 o          1 QHK      -0.565500
     25 O2         -35.8280   -22.5590     6.6940 o          1 QHK      -0.709000
     26 O3         -35.9320   -21.4010     4.7820 o          1 QHK      -0.709000
     27 O4         -40.9250   -17.7400    11.5080 o          1 QHK      -0.736500
     28 O5         -39.3100   -16.3280    12.1270 o          1 QHK      -0.736500
     29 O6         -39.8770   -23.3670     3.7310 o          1 QHK      -0.565500
     30 S1         -40.1140   -22.0090     4.1910 sy         1 QHK       1.124600
     31 H1         -38.3340   -22.2920     6.7240 h1         1 QHK       0.039700
     32 H2         -38.0650   -23.3550     5.3580 h1         1 QHK       0.039700
     33 H8         -41.0660   -19.3790     8.3590 hc         1 QHK       0.080700
     34 H10        -41.2050   -16.6860     6.8420 hc         1 QHK       0.064700
     35 H9         -42.1970   -18.1680     6.5030 hc         1 QHK       0.064700
     36 H12        -42.1010   -16.5920     9.1840 hc         1 QHK       0.064700
     37 H11        -43.0940   -18.0820     8.8770 hc         1 QHK       0.064700
     38 H13        -38.9220   -20.2250     7.1800 ha         1 QHK       0.137000
     39 H14        -40.5780   -24.0430     6.1840 ha         1 QHK       0.134000
     40 H15        -42.0460   -24.0800     8.1560 ha         1 QHK       0.109000
     41 H16        -43.5310   -22.1610     8.6390 ha         1 QHK       0.106000
     42 H17        -43.5490   -20.2020     7.1350 ha         1 QHK       0.109000
     43 H18        -42.0700   -20.1400     5.1630 ha         1 QHK       0.134000
     44 H3         -38.1860   -19.5580     3.0130 ha         1 QHK       0.126000
     45 H4         -37.9330   -17.1430     3.4550 ha         1 QHK       0.095000
     46 H5         -38.1250   -16.2700     5.7630 ha         1 QHK       0.115000
     47 H6         -37.1680   -16.3710    10.3610 h4         1 QHK       0.030100
     48 C10        -39.8800   -17.0880    11.3160 c          1 QHK       0.741600
@<TRIPOS>BOND
     1     1    11 1   
     2     1    21 1   
     3     1    31 1   
     4     1    32 1   
     5     2     3 1   
     6     2    20 2   
     7     2    22 1   
     8     3     4 1   
     9     3     5 1   
    10     3    33 1   
    11     4     5 1   
    12     4    34 1   
    13     4    35 1   
    14     5    36 1   
    15     5    37 1   
    16     6    14 ar  
    17     6    18 ar  
    18     6    38 1   
    19     7     8 ar  
    20     7    13 ar  
    21     7    30 1   
    22     8     9 ar  
    23     8    39 1   
    24     9    10 ar  
    25     9    40 1   
    26    10    12 ar  
    27    10    41 1   
    28    11    25 1   
    29    11    26 1   
    30    12    13 ar  
    31    12    42 1   
    32    13    43 1   
    33    14    15 ar  
    34    14    21 1   
    35    15    16 ar  
    36    15    44 1   
    37    16    17 ar  
    38    16    45 1   
    39    17    18 ar  
    40    17    46 1   
    41    18    22 1   
    42    19    20 1   
    43    19    23 2   
    44    19    47 1   
    45    20    48 1   
    46    21    30 1   
    47    22    23 1   
    48    24    30 2   
    49    27    48 1   
    50    28    48 1   
    51    29    30 2   
@<TRIPOS>SUBSTRUCTURE
     1 QHK         1 TEMP              0 ****  ****    0 ROOT
