@<TRIPOS>MOLECULE
QHK
   48    51     1     0     0
SMALL
No Charge or Current Charge


@<TRIPOS>ATOM
      1 C1         -37.5470   -22.4640     5.2900 c3         1 QHK       0.035800
      2 C11        -39.7310   -17.9380     8.8340 cc         1 QHK      -0.108300
      3 C12        -41.1110   -18.2630     8.4090 cx         1 QHK      -0.020400
      4 C13        -41.7000   -17.5190     7.2280 cx         1 QHK      -0.130400
      5 C14        -42.2330   -17.2690     8.6140 cx         1 QHK      -0.130400
      6 C15        -38.6470   -19.7420     6.4000 ca         1 QHK      -0.107000
      7 C16        -41.1700   -21.9790     5.5940 ca         1 QHK      -0.291500
      8 C17        -41.0140   -22.7490     6.7650 ca         1 QHK      -0.013500
      9 C18        -41.8770   -22.5520     7.8560 ca         1 QHK      -0.137500
     10 C19        -42.9040   -21.5960     7.7820 ca         1 QHK      -0.066000
     11 C2         -36.1780   -21.8120     5.6740 c          1 QHK       0.734000
     12 C20        -43.0610   -20.8280     6.6160 ca         1 QHK      -0.137500
     13 C21        -42.1920   -21.0100     5.5250 ca         1 QHK      -0.013500
     14 C3         -38.6470   -20.1890     5.0670 ca         1 QHK       0.276000
     15 C4         -38.6020   -19.2400     4.0260 ca         1 QHK      -0.055000
     16 C5         -38.5600   -17.8650     4.3140 ca         1 QHK      -0.124000
     17 C6         -38.5530   -17.4290     5.6490 ca         1 QHK      -0.104000
     18 C7         -38.5990   -18.3660     6.6970 ca         1 QHK       0.037800
     19 C8         -37.8070   -17.3330     9.8450 cd         1 QHK       0.250900
     20 C9         -39.1890   -17.5570    10.0470 cd         1 QHK      -0.217600
     21 N1         -38.6340   -21.5670     4.7810 nh         1 QHK      -0.676300
     22 N2         -38.5960   -17.9370     8.0250 na         1 QHK       0.192000
     23 N3         -37.4110   -17.5690     8.6100 nc         1 QHK      -0.550800
     24 O1         -40.5280   -21.4580     3.0470 o          1 QHK      -0.565500
     25 O2         -35.8910   -21.7200     6.8610 o          1 QHK      -0.709000
     26 O3         -35.4360   -21.4370     4.7730 o          1 QHK      -0.709000
     27 O4         -41.0660   -17.6970    11.4530 o          1 QHK      -0.736500
     28 O5         -39.2200   -17.0350    12.3070 o          1 QHK      -0.736500
     29 O6         -39.8430   -23.7060     4.0610 o          1 QHK      -0.565500
     30 S1         -40.0770   -22.2620     4.1890 sy         1 QHK       1.124600
     31 H1         -37.9100   -23.0030     6.1750 h1         1 QHK       0.039700
     32 H2         -37.3160   -23.2190     4.5270 h1         1 QHK       0.039700
     33 H8         -41.3480   -19.3200     8.4920 hc         1 QHK       0.080700
     34 H10        -41.1150   -16.7250     6.7720 hc         1 QHK       0.064700
     35 H9         -42.3250   -18.0760     6.5360 hc         1 QHK       0.064700
     36 H12        -41.9930   -16.3170     9.0800 hc         1 QHK       0.064700
     37 H11        -43.2160   -17.6630     8.8590 hc         1 QHK       0.064700
     38 H13        -38.6770   -20.4670     7.2080 ha         1 QHK       0.137000
     39 H14        -40.2300   -23.5010     6.8300 ha         1 QHK       0.134000
     40 H15        -41.7540   -23.1470     8.7580 ha         1 QHK       0.109000
     41 H16        -43.5740   -21.4490     8.6250 ha         1 QHK       0.106000
     42 H17        -43.8550   -20.0880     6.5580 ha         1 QHK       0.109000
     43 H18        -42.3260   -20.4050     4.6290 ha         1 QHK       0.134000
     44 H3         -38.5830   -19.5740     2.9930 ha         1 QHK       0.126000
     45 H4         -38.5220   -17.1410     3.5040 ha         1 QHK       0.095000
     46 H5         -38.5140   -16.3650     5.8710 ha         1 QHK       0.115000
     47 H6         -37.0720   -17.0220    10.5770 h4         1 QHK       0.030100
     48 C10        -39.8830   -17.4120    11.3520 c          1 QHK       0.741600
@<TRIPOS>BOND
     1     1    11 1   
     2     1    21 1   
     3     1    31 1   
     4     1    32 1   
     5     2     3 1   
     6     2    20 2   
     7     2    22 1   
     8     3     4 1   
     9     3     5 1   
    10     3    33 1   
    11     4     5 1   
    12     4    34 1   
    13     4    35 1   
    14     5    36 1   
    15     5    37 1   
    16     6    14 ar  
    17     6    18 ar  
    18     6    38 1   
    19     7     8 ar  
    20     7    13 ar  
    21     7    30 1   
    22     8     9 ar  
    23     8    39 1   
    24     9    10 ar  
    25     9    40 1   
    26    10    12 ar  
    27    10    41 1   
    28    11    25 1   
    29    11    26 1   
    30    12    13 ar  
    31    12    42 1   
    32    13    43 1   
    33    14    15 ar  
    34    14    21 1   
    35    15    16 ar  
    36    15    44 1   
    37    16    17 ar  
    38    16    45 1   
    39    17    18 ar  
    40    17    46 1   
    41    18    22 1   
    42    19    20 1   
    43    19    23 2   
    44    19    47 1   
    45    20    48 1   
    46    21    30 1   
    47    22    23 1   
    48    24    30 2   
    49    27    48 1   
    50    28    48 1   
    51    29    30 2   
@<TRIPOS>SUBSTRUCTURE
     1 QHK         1 TEMP              0 ****  ****    0 ROOT
