@<TRIPOS>MOLECULE
QHM
   49    51     1     0     0
SMALL
No Charge or Current Charge


@<TRIPOS>ATOM
      1 N1          -1.4590    -0.1000    -0.0280 nu         1 QHM      -0.807200
      2 C4           1.9470    -2.5980     0.0120 ca         1 QHM      -0.169300
      3 C5           4.7770     1.7600     0.3930 ca         1 QHM      -0.116000
      4 C6           4.7290     3.1040     0.7940 ca         1 QHM      -0.071000
      5 C7           3.5120     3.8010     0.7510 ca         1 QHM      -0.131000
      6 C8           2.3450     3.1510     0.3140 ca         1 QHM      -0.043000
      7 C10          0.9570    -0.3620    -0.2790 ca         1 QHM      -0.272600
      8 C13          2.3820     1.7940    -0.0760 ca         1 QHM      -0.160600
      9 C15         -2.8730    -0.5230     0.0230 c3         1 QHM       0.223800
     10 C17         -5.8260    -0.5510    -0.8810 c3         1 QHM       0.174800
     11 C20         -5.7610     2.5710     1.4260 c3         1 QHM      -0.090600
     12 C9           1.1160     1.1190    -0.5290 c          1 QHM       0.613300
     13 C3           0.6590    -3.1190     0.2490 ca         1 QHM       0.017000
     14 C2          -0.4580    -2.2790     0.2280 ca         1 QHM      -0.241000
     15 C12          3.6090     1.1030    -0.0380 ca         1 QHM      -0.090000
     16 C11          2.0920    -1.2130    -0.2520 ca         1 QHM      -0.022000
     17 C1          -0.3230    -0.9090    -0.0350 ca         1 QHM       0.425000
     18 N2          -5.2980     0.4020     0.1390 n3         1 QHM      -0.739600
     19 O1           0.2490     1.7780    -1.0970 o          1 QHM      -0.598100
     20 C16         -3.8390     0.6950    -0.0500 c3         1 QHM       0.158800
     21 C18         -7.2550    -1.0710    -0.6200 c3         1 QHM      -0.090600
     22 C19         -6.1240     1.6410     0.2500 c3         1 QHM       0.174800
     23 O2           2.8930    -4.8360     0.4870 oh         1 QHM      -0.659000
     24 S1           3.7370    -0.5800    -0.6170 ss         1 QHM       0.141000
     25 H1          -1.2780     0.8520    -0.3470 hn         1 QHM       0.373000
     26 H2           5.7260     1.2280     0.4110 ha         1 QHM       0.124000
     27 H3           5.6340     3.6070     1.1280 ha         1 QHM       0.116000
     28 H4           3.4710     4.8450     1.0550 ha         1 QHM       0.119000
     29 H5           1.4070     3.7030     0.2880 ha         1 QHM       0.137000
     30 H6          -3.0740    -1.2020    -0.8150 h1         1 QHM       0.049700
     31 H7          -3.0640    -1.0670     0.9570 h1         1 QHM       0.049700
     32 H8          -5.7970    -0.0900    -1.8780 h1         1 QHM       0.030200
     33 H9          -5.1850    -1.4400    -0.9240 h1         1 QHM       0.030200
     34 H10         -5.7170     2.0080     2.3660 hc         1 QHM       0.037533
     35 H11         -4.7990     3.0690     1.2650 hc         1 QHM       0.037533
     36 H12         -6.5230     3.3520     1.5320 hc         1 QHM       0.037533
     37 H13          0.5090    -4.1770     0.4510 ha         1 QHM       0.131000
     38 H14         -1.4340    -2.7120     0.4220 ha         1 QHM       0.121000
     39 H16          3.5980    -3.5560    -0.9910 h1         1 QHM       0.028700
     40 H17          3.9490    -3.0640     0.6740 h1         1 QHM       0.028700
     41 H19         -3.5000     1.3920     0.7260 h1         1 QHM       0.041700
     42 H20         -3.6850     1.1980    -1.0150 h1         1 QHM       0.041700
     43 H21         -7.3460    -1.4560     0.4030 hc         1 QHM       0.037533
     44 H22         -8.0040    -0.2860    -0.7710 hc         1 QHM       0.037533
     45 H23         -7.4870    -1.8880    -1.3130 hc         1 QHM       0.037533
     46 H24         -7.1780     1.3730     0.3930 h1         1 QHM       0.030200
     47 H25         -6.0650     2.2170    -0.6840 h1         1 QHM       0.030200
     48 H26          3.7390    -5.3350     0.4610 ho         1 QHM       0.447000
     49 C14          3.1830    -3.5120     0.0250 c3         1 QHM       0.218900
@<TRIPOS>BOND
     1     1     9 1   
     2     1    17 1   
     3     1    25 1   
     4     2    13 ar  
     5     2    16 ar  
     6     2    49 1   
     7     3     4 ar  
     8     3    15 ar  
     9     3    26 1   
    10     4     5 ar  
    11     4    27 1   
    12     5     6 ar  
    13     5    28 1   
    14     6     8 ar  
    15     6    29 1   
    16     7    12 1   
    17     7    16 ar  
    18     7    17 ar  
    19     8    12 1   
    20     8    15 ar  
    21     9    20 1   
    22     9    30 1   
    23     9    31 1   
    24    10    18 1   
    25    10    21 1   
    26    10    32 1   
    27    10    33 1   
    28    11    22 1   
    29    11    34 1   
    30    11    35 1   
    31    11    36 1   
    32    12    19 2   
    33    13    14 ar  
    34    13    37 1   
    35    14    17 ar  
    36    14    38 1   
    37    15    24 1   
    38    16    24 1   
    39    18    20 1   
    40    18    22 1   
    41    20    41 1   
    42    20    42 1   
    43    21    43 1   
    44    21    44 1   
    45    21    45 1   
    46    22    46 1   
    47    22    47 1   
    48    23    48 1   
    49    23    49 1   
    50    39    49 1   
    51    40    49 1   
@<TRIPOS>SUBSTRUCTURE
     1 QHM         1 TEMP              0 ****  ****    0 ROOT
