@<TRIPOS>MOLECULE
QHM
   49    51     1     0     0
SMALL
abcg2


@<TRIPOS>ATOM
      1 N1          -1.5330     0.1380     0.2170 nu         1 QHM      -0.807200
      2 C4           1.7220    -2.4950     0.4010 ca         1 QHM      -0.169300
      3 C5           4.9090     1.6180    -0.1110 ca         1 QHM      -0.116000
      4 C6           5.0200     2.9830    -0.2640 ca         1 QHM      -0.071000
      5 C7           3.8750     3.7770    -0.3190 ca         1 QHM      -0.131000
      6 C8           2.6310     3.1900    -0.2230 ca         1 QHM      -0.043000
      7 C10          0.8840    -0.1810     0.1900 ca         1 QHM      -0.272600
      8 C13          2.4890     1.8040    -0.0680 ca         1 QHM      -0.160600
      9 C15         -2.9020    -0.3140     0.2320 c3         1 QHM       0.223800
     10 C17         -5.5840     0.0310    -1.3790 c3         1 QHM       0.174800
     11 C20         -6.1470     1.4320     2.0430 c3         1 QHM      -0.090600
     12 C9           1.1200     1.2510     0.0290 c          1 QHM       0.613300
     13 C3           0.4050    -2.9280     0.4880 ca         1 QHM       0.017000
     14 C2          -0.6580    -2.0580     0.4310 ca         1 QHM      -0.241000
     15 C12          3.6450     1.0300    -0.0130 ca         1 QHM      -0.090000
     16 C11          1.9380    -1.1230     0.2580 ca         1 QHM      -0.022000
     17 C1          -0.4650    -0.6750     0.2770 ca         1 QHM       0.425000
     18 N2          -5.2160     0.4410    -0.0300 n3         1 QHM      -0.739600
     19 O1           0.1860     2.0540    -0.0330 o          1 QHM      -0.598100
     20 C16         -3.8360     0.8760     0.0520 c3         1 QHM       0.158800
     21 C18         -6.6890    -1.0120    -1.3920 c3         1 QHM      -0.090600
     22 C19         -6.1480     1.4120     0.5240 c3         1 QHM       0.174800
     23 O2           2.3830    -4.7770     0.5450 oh         1 QHM      -0.659000
     24 S1           3.6260    -0.6910     0.1760 ss         1 QHM       0.141000
     25 H1          -1.3370     1.1210     0.0970 hn         1 QHM       0.373000
     26 H2           5.7980     1.0020    -0.0650 ha         1 QHM       0.124000
     27 H3           6.0010     3.4340    -0.3400 ha         1 QHM       0.116000
     28 H4           3.9600     4.8480    -0.4360 ha         1 QHM       0.119000
     29 H5           1.7460     3.8080    -0.2660 ha         1 QHM       0.137000
     30 H6          -3.0710    -1.0480    -0.5630 h1         1 QHM       0.049700
     31 H7          -3.1470    -0.8090     1.1770 h1         1 QHM       0.049700
     32 H8          -5.8740     0.8980    -1.9950 h1         1 QHM       0.030200
     33 H9          -4.7050    -0.3970    -1.8650 h1         1 QHM       0.030200
     34 H10         -6.4050     0.4510     2.4420 hc         1 QHM       0.037533
     35 H11         -5.1780     1.7170     2.4550 hc         1 QHM       0.037533
     36 H12         -6.8790     2.1520     2.4110 hc         1 QHM       0.037533
     37 H13          0.1990    -3.9830     0.6070 ha         1 QHM       0.131000
     38 H14         -1.6600    -2.4550     0.5110 ha         1 QHM       0.121000
     39 H16          3.5090    -3.3360    -0.4250 h1         1 QHM       0.028700
     40 H17          3.5100    -3.2260     1.3290 h1         1 QHM       0.028700
     41 H19         -3.7110     1.5410     0.9090 h1         1 QHM       0.041700
     42 H20         -3.5320     1.4560    -0.8350 h1         1 QHM       0.041700
     43 H21         -6.3750    -1.9080    -0.8550 hc         1 QHM       0.037533
     44 H22         -7.6090    -0.6500    -0.9310 hc         1 QHM       0.037533
     45 H23         -6.9300    -1.2980    -2.4160 hc         1 QHM       0.037533
     46 H24         -7.1530     1.1500     0.1880 h1         1 QHM       0.030200
     47 H25         -5.9540     2.4250     0.1350 h1         1 QHM       0.030200
     48 H26          3.1350    -5.3700     0.6220 ho         1 QHM       0.447000
     49 C14          2.8740    -3.4650     0.4640 c3         1 QHM       0.218900
@<TRIPOS>BOND
     1     1     9 1   
     2     1    17 1   
     3     1    25 1   
     4     2    13 ar  
     5     2    16 ar  
     6     2    49 1   
     7     3     4 ar  
     8     3    15 ar  
     9     3    26 1   
    10     4     5 ar  
    11     4    27 1   
    12     5     6 ar  
    13     5    28 1   
    14     6     8 ar  
    15     6    29 1   
    16     7    12 1   
    17     7    16 ar  
    18     7    17 ar  
    19     8    12 1   
    20     8    15 ar  
    21     9    20 1   
    22     9    30 1   
    23     9    31 1   
    24    10    18 1   
    25    10    21 1   
    26    10    32 1   
    27    10    33 1   
    28    11    22 1   
    29    11    34 1   
    30    11    35 1   
    31    11    36 1   
    32    12    19 2   
    33    13    14 ar  
    34    13    37 1   
    35    14    17 ar  
    36    14    38 1   
    37    15    24 1   
    38    16    24 1   
    39    18    20 1   
    40    18    22 1   
    41    20    41 1   
    42    20    42 1   
    43    21    43 1   
    44    21    44 1   
    45    21    45 1   
    46    22    46 1   
    47    22    47 1   
    48    23    48 1   
    49    23    49 1   
    50    39    49 1   
    51    40    49 1   
@<TRIPOS>SUBSTRUCTURE
     1 QHM         1 TEMP              0 ****  ****    0 ROOT
