@<TRIPOS>MOLECULE
QHN
   28    30     1     0     0
SMALL
abcg2


@<TRIPOS>ATOM
      1 C1         -39.2090   -16.8040    11.5310 c          1 QHN       0.737600
      2 C10        -39.3450   -19.0790     4.8960 ca         1 QHN      -0.111000
      3 C11        -39.1490   -18.1440     3.8890 ca         1 QHN      -0.137000
      4 C12        -38.8080   -16.8400     4.2200 ca         1 QHN      -0.111000
      5 C13        -38.6730   -16.4660     5.5490 ca         1 QHN      -0.112500
      6 C2         -38.8460   -16.7590    10.0720 cc         1 QHN      -0.205600
      7 C3         -39.4830   -17.3130     8.9760 cd         1 QHN      -0.107300
      8 C4         -40.7730   -18.0210     8.8550 cx         1 QHN      -0.027400
      9 C5         -41.7920   -17.5730     7.8450 cx         1 QHN      -0.126900
     10 C6         -42.0350   -17.3520     9.3020 cx         1 QHN      -0.126900
     11 C7         -37.7030   -16.1420     9.5300 cc         1 QHN       0.268900
     12 C8         -38.8700   -17.4080     6.5520 ca         1 QHN       0.057800
     13 C9         -39.1960   -18.7190     6.2280 ca         1 QHN      -0.112500
     14 N1         -38.6980   -17.0260     7.9000 na         1 QHN       0.181000
     15 N2         -37.6160   -16.3090     8.2300 nd         1 QHN      -0.574800
     16 O1         -40.0850   -17.6180    11.8810 o          1 QHN      -0.723500
     17 O2         -38.5690   -16.0240    12.2680 o          1 QHN      -0.723500
     18 H10        -38.6530   -16.1040     3.4420 ha         1 QHN       0.102000
     19 H11        -38.4170   -15.4470     5.8080 ha         1 QHN       0.131000
     20 H1         -40.7270   -19.0910     9.0330 hc         1 QHN       0.081700
     21 H3         -41.5610   -16.7090     7.2340 hc         1 QHN       0.066950
     22 H2         -42.3580   -18.3380     7.3300 hc         1 QHN       0.066950
     23 H5         -41.9600   -16.3410     9.6810 hc         1 QHN       0.066950
     24 H4         -42.7740   -17.9620     9.8050 hc         1 QHN       0.066950
     25 H6         -36.9360   -15.5930    10.0560 h4         1 QHN       0.038100
     26 H7         -39.3210   -19.4600     7.0050 ha         1 QHN       0.131000
     27 H8         -39.6000   -20.1010     4.6470 ha         1 QHN       0.102000
     28 H9         -39.2580   -18.4320     2.8510 ha         1 QHN       0.099000
@<TRIPOS>BOND
     1     1     6 1   
     2     1    16 1   
     3     1    17 1   
     4     2     3 ar  
     5     2    13 ar  
     6     2    27 1   
     7     3     4 ar  
     8     3    28 1   
     9     4     5 ar  
    10     4    18 1   
    11     5    12 ar  
    12     5    19 1   
    13     6     7 2   
    14     6    11 1   
    15     7     8 1   
    16     7    14 1   
    17     8     9 1   
    18     8    10 1   
    19     8    20 1   
    20     9    10 1   
    21     9    21 1   
    22     9    22 1   
    23    10    23 1   
    24    10    24 1   
    25    11    15 2   
    26    11    25 1   
    27    12    13 ar  
    28    12    14 1   
    29    13    26 1   
    30    14    15 1   
@<TRIPOS>SUBSTRUCTURE
     1 QHN         1 TEMP              0 ****  ****    0 ROOT
