@<TRIPOS>MOLECULE
QHN
   28    30     1     0     0
SMALL
No Charge or Current Charge


@<TRIPOS>ATOM
      1 C1         -39.2870   -16.8570    11.4620 c          1 QHN       0.737600
      2 C10        -39.0900   -19.1800     4.9630 ca         1 QHN      -0.111000
      3 C11        -39.3030   -18.2080     3.9710 ca         1 QHN      -0.137000
      4 C12        -39.2340   -16.8430     4.2980 ca         1 QHN      -0.111000
      5 C13        -38.9550   -16.4500     5.6190 ca         1 QHN      -0.112500
      6 C2         -38.8260   -16.8320    10.0540 cc         1 QHN      -0.205600
      7 C3         -39.4430   -17.2970     8.9140 cd         1 QHN      -0.107300
      8 C4         -40.7930   -17.9220     8.7730 cx         1 QHN      -0.027400
      9 C5         -41.7560   -17.4540     7.7020 cx         1 QHN      -0.126900
     10 C6         -42.0450   -17.1600     9.1500 cx         1 QHN      -0.126900
     11 C7         -37.5820   -16.3030     9.6620 cc         1 QHN       0.268900
     12 C8         -38.7490   -17.4200     6.6210 ca         1 QHN       0.057800
     13 C9         -38.8110   -18.7880     6.2840 ca         1 QHN      -0.112500
     14 N1         -38.4760   -17.0240     7.9330 na         1 QHN       0.181000
     15 N2         -37.3240   -16.3990     8.3730 nd         1 QHN      -0.574800
     16 O1         -40.3470   -17.3910    11.7490 o          1 QHN      -0.723500
     17 O2         -38.5620   -16.3570    12.3100 o          1 QHN      -0.723500
     18 H10        -39.3970   -16.0910     3.5300 ha         1 QHN       0.102000
     19 H11        -38.9030   -15.3930     5.8700 ha         1 QHN       0.131000
     20 H1         -40.7850   -18.9910     8.9740 hc         1 QHN       0.081700
     21 H3         -41.4680   -16.6160     7.0730 hc         1 QHN       0.066950
     22 H2         -42.3610   -18.2090     7.2050 hc         1 QHN       0.066950
     23 H5         -41.9330   -16.1330     9.4890 hc         1 QHN       0.066950
     24 H4         -42.8460   -17.7150     9.6320 hc         1 QHN       0.066950
     25 H6         -36.8350   -15.8500    10.3010 h4         1 QHN       0.038100
     26 H7         -38.6450   -19.5430     7.0490 ha         1 QHN       0.131000
     27 H8         -39.1400   -20.2370     4.7090 ha         1 QHN       0.102000
     28 H9         -39.5190   -18.5120     2.9500 ha         1 QHN       0.099000
@<TRIPOS>BOND
     1     1     6 1   
     2     1    16 1   
     3     1    17 1   
     4     2     3 ar  
     5     2    13 ar  
     6     2    27 1   
     7     3     4 ar  
     8     3    28 1   
     9     4     5 ar  
    10     4    18 1   
    11     5    12 ar  
    12     5    19 1   
    13     6     7 2   
    14     6    11 1   
    15     7     8 1   
    16     7    14 1   
    17     8     9 1   
    18     8    10 1   
    19     8    20 1   
    20     9    10 1   
    21     9    21 1   
    22     9    22 1   
    23    10    23 1   
    24    10    24 1   
    25    11    15 2   
    26    11    25 1   
    27    12    13 ar  
    28    12    14 1   
    29    13    26 1   
    30    14    15 1   
@<TRIPOS>SUBSTRUCTURE
     1 QHN         1 TEMP              0 ****  ****    0 ROOT
