@<TRIPOS>MOLECULE
QHO
   17    17     1     0     0
SMALL
abcg2


@<TRIPOS>ATOM
      1 C02         -9.1060    -4.1110    16.7770 ca         1 QHO       0.133000
      2 C03         -8.7630    -3.1040    17.6730 ca         1 QHO      -0.123600
      3 C04         -9.6750    -2.5030    18.6930 c          1 QHO       0.597700
      4 C08         -7.4600    -2.6000    17.6280 ca         1 QHO      -0.091000
      5 C09         -6.5640    -3.1070    16.7130 ca         1 QHO       0.178000
      6 C11         -6.8920    -4.1110    15.8160 ca         1 QHO      -0.147000
      7 C12         -8.1810    -4.5990    15.8650 ca         1 QHO       0.158000
      8 F01        -10.3430    -4.6500    16.7560 f          1 QHO      -0.162000
      9 F10         -5.3110    -2.6070    16.6810 f          1 QHO      -0.162000
     10 F13         -8.5660    -5.5650    15.0180 f          1 QHO      -0.150000
     11 N05        -10.9440    -2.9170    18.7380 ns         1 QHO      -0.367400
     12 O06        -11.7800    -2.3560    19.6870 oh         1 QHO      -0.436100
     13 O07         -9.2880    -1.6310    19.4830 o          1 QHO      -0.621100
     14 H1          -7.1700    -1.8160    18.3120 ha         1 QHO       0.171000
     15 H2          -6.1760    -4.4990    15.1050 ha         1 QHO       0.161000
     16 H3         -11.3860    -3.6240    18.1730 hn         1 QHO       0.380500
     17 H4         -11.1890    -1.7080    20.1250 ho         1 QHO       0.480000
@<TRIPOS>BOND
     1     1     2 ar  
     2     1     7 ar  
     3     1     8 1   
     4     2     3 1   
     5     2     4 ar  
     6     3    11 1   
     7     3    13 2   
     8     4     5 ar  
     9     4    14 1   
    10     5     6 ar  
    11     5     9 1   
    12     6     7 ar  
    13     6    15 1   
    14     7    10 1   
    15    11    12 1   
    16    11    16 1   
    17    12    17 1   
@<TRIPOS>SUBSTRUCTURE
     1 QHO         1 TEMP              0 ****  ****    0 ROOT
