@<TRIPOS>MOLECULE
QHO
   17    17     1     0     0
SMALL
No Charge or Current Charge


@<TRIPOS>ATOM
      1 C02         -9.1170    -4.1160    16.7890 ca         1 QHO       0.133000
      2 C03         -8.7300    -3.1020    17.7080 ca         1 QHO      -0.123600
      3 C04         -9.6540    -2.5180    18.7630 c          1 QHO       0.597700
      4 C08         -7.4020    -2.6090    17.6310 ca         1 QHO      -0.091000
      5 C09         -6.4980    -3.1070    16.6800 ca         1 QHO       0.178000
      6 C11         -6.8900    -4.1050    15.7810 ca         1 QHO      -0.147000
      7 C12         -8.1970    -4.6060    15.8380 ca         1 QHO       0.158000
      8 F01        -10.3680    -4.6350    16.7940 f          1 QHO      -0.162000
      9 F10         -5.2390    -2.6190    16.6300 f          1 QHO      -0.162000
     10 F13         -8.5720    -5.5710    14.9660 f          1 QHO      -0.150000
     11 N05        -10.9470    -3.0060    18.8620 ns         1 QHO      -0.367400
     12 O06        -11.9070    -2.3700    19.7390 oh         1 QHO      -0.436100
     13 O07         -9.2920    -1.6260    19.5210 o          1 QHO      -0.621100
     14 H1          -7.0600    -1.8330    18.3130 ha         1 QHO       0.171000
     15 H2          -6.1870    -4.4880    15.0470 ha         1 QHO       0.161000
     16 H3         -11.3130    -3.6420    18.1540 hn         1 QHO       0.380500
     17 H4         -11.4220    -1.5570    20.0290 ho         1 QHO       0.480000
@<TRIPOS>BOND
     1     1     2 ar  
     2     1     7 ar  
     3     1     8 1   
     4     2     3 1   
     5     2     4 ar  
     6     3    11 1   
     7     3    13 2   
     8     4     5 ar  
     9     4    14 1   
    10     5     6 ar  
    11     5     9 1   
    12     6     7 ar  
    13     6    15 1   
    14     7    10 1   
    15    11    12 1   
    16    11    16 1   
    17    12    17 1   
@<TRIPOS>SUBSTRUCTURE
     1 QHO         1 TEMP              0 ****  ****    0 ROOT
