@<TRIPOS>MOLECULE
QHQ
   52    55     1     0     0
SMALL
No Charge or Current Charge


@<TRIPOS>ATOM
      1 C1         -37.3260   -22.4620     4.7120 c3         1 QHQ       0.038800
      2 C10        -41.0580   -18.7700     8.2240 cx         1 QHQ      -0.021400
      3 C11        -41.7980   -17.9520     7.1860 cx         1 QHQ      -0.129900
      4 C12        -42.2470   -17.9210     8.6210 cx         1 QHQ      -0.129900
      5 C13        -38.9010   -17.6010     5.4390 ca         1 QHQ      -0.103000
      6 C14        -39.0280   -17.9740     4.0920 ca         1 QHQ      -0.126000
      7 C15        -38.9260   -19.3280     3.7250 ca         1 QHQ      -0.052000
      8 C16        -41.2280   -21.9450     4.6100 ca         1 QHQ      -0.253500
      9 C17        -41.3300   -22.4250     5.9320 ca         1 QHQ      -0.050000
     10 C18        -42.3960   -22.0280     6.7570 ca         1 QHQ       0.114100
     11 C19        -43.4430   -22.1180     8.9910 c3         1 QHQ       0.150900
     12 C2         -35.9900   -21.6720     4.9040 c          1 QHQ       0.734000
     13 C20        -43.3770   -21.1460     6.2510 ca         1 QHQ      -0.155000
     14 C21        -43.2770   -20.6650     4.9340 ca         1 QHQ      -0.099000
     15 C22        -42.2040   -21.0550     4.1150 ca         1 QHQ      -0.053000
     16 C3         -38.7010   -20.3220     4.7010 ca         1 QHQ       0.271000
     17 C4         -38.5800   -19.9340     6.0480 ca         1 QHQ      -0.106000
     18 C5         -38.6830   -18.5810     6.4240 ca         1 QHQ       0.036800
     19 C6         -37.7820   -17.7790     9.6420 cc         1 QHQ       0.251900
     20 C7         -39.1340   -18.1200     9.8390 cc         1 QHQ      -0.219600
     21 C8         -39.7650   -18.1710    11.1810 c          1 QHQ       0.742600
     22 C9         -39.6620   -18.3970     8.5970 cd         1 QHQ      -0.106300
     23 N1         -38.5550   -21.6820     4.3580 nh         1 QHQ      -0.678300
     24 N2         -38.5470   -18.2170     7.7650 na         1 QHQ       0.190000
     25 N3         -37.3750   -17.8420     8.3900 nd         1 QHQ      -0.550800
     26 O1         -39.9870   -21.9010     2.2290 o          1 QHQ      -0.564000
     27 O2         -35.5490   -21.5440     6.0390 o          1 QHQ      -0.710500
     28 O3         -35.4260   -21.2270     3.9110 o          1 QHQ      -0.710500
     29 O4         -40.9150   -18.5600    11.3030 o          1 QHQ      -0.737000
     30 O5         -39.0860   -17.8470    12.1440 o          1 QHQ      -0.737000
     31 O6         -42.4340   -22.5190     8.0470 os         1 QHQ      -0.340100
     32 O7         -39.6500   -23.9170     3.7700 o          1 QHQ      -0.564000
     33 S1         -39.8500   -22.4750     3.5730 sy         1 QHQ       1.125600
     34 H1         -37.5130   -23.0230     5.6370 h1         1 QHQ       0.041700
     35 H2         -37.1240   -23.2010     3.9250 h1         1 QHQ       0.041700
     36 H6         -41.2090   -19.8450     8.1840 hc         1 QHQ       0.080700
     37 H8         -41.3230   -17.0540     6.7990 hc         1 QHQ       0.064700
     38 H7         -42.4190   -18.4800     6.4700 hc         1 QHQ       0.064700
     39 H10        -42.0610   -17.0120     9.1860 hc         1 QHQ       0.064700
     40 H9         -43.1710   -18.4350     8.8750 hc         1 QHQ       0.064700
     41 H11        -38.9720   -16.5520     5.7210 ha         1 QHQ       0.115000
     42 H12        -39.1940   -17.2160     3.3310 ha         1 QHQ       0.096000
     43 H13        -38.9950   -19.5980     2.6760 ha         1 QHQ       0.129000
     44 H14        -40.5780   -23.1050     6.3270 ha         1 QHQ       0.145000
     45 H15        -43.2790   -22.6130     9.9560 h1         1 QHQ       0.036033
     46 H16        -43.4130   -21.0330     9.1550 h1         1 QHQ       0.036033
     47 H17        -44.4440   -22.3930     8.6330 h1         1 QHQ       0.036033
     48 H18        -44.2150   -20.8210     6.8620 ha         1 QHQ       0.112000
     49 H19        -44.0300   -19.9820     4.5470 ha         1 QHQ       0.108000
     50 H20        -42.1400   -20.6700     3.0990 ha         1 QHQ       0.138000
     51 H3         -38.4020   -20.6890     6.8070 ha         1 QHQ       0.137000
     52 H4         -37.0600   -17.5050    10.4000 h4         1 QHQ       0.030100
@<TRIPOS>BOND
     1     1    12 1   
     2     1    23 1   
     3     1    34 1   
     4     1    35 1   
     5     2     3 1   
     6     2     4 1   
     7     2    22 1   
     8     2    36 1   
     9     3     4 1   
    10     3    37 1   
    11     3    38 1   
    12     4    39 1   
    13     4    40 1   
    14     5     6 ar  
    15     5    18 ar  
    16     5    41 1   
    17     6     7 ar  
    18     6    42 1   
    19     7    16 ar  
    20     7    43 1   
    21     8     9 ar  
    22     8    15 ar  
    23     8    33 1   
    24     9    10 ar  
    25     9    44 1   
    26    10    13 ar  
    27    10    31 1   
    28    11    31 1   
    29    11    45 1   
    30    11    46 1   
    31    11    47 1   
    32    12    27 1   
    33    12    28 1   
    34    13    14 ar  
    35    13    48 1   
    36    14    15 ar  
    37    14    49 1   
    38    15    50 1   
    39    16    17 ar  
    40    16    23 1   
    41    17    18 ar  
    42    17    51 1   
    43    18    24 1   
    44    19    20 1   
    45    19    25 2   
    46    19    52 1   
    47    20    21 1   
    48    20    22 2   
    49    21    29 1   
    50    21    30 1   
    51    22    24 1   
    52    23    33 1   
    53    24    25 1   
    54    26    33 2   
    55    32    33 2   
@<TRIPOS>SUBSTRUCTURE
     1 QHQ         1 TEMP              0 ****  ****    0 ROOT
