@<TRIPOS>MOLECULE
QHQ
   52    55     1     0     0
SMALL
bcc


@<TRIPOS>ATOM
      1 C1         -38.0110   -22.4160     5.1700 c3         1 QHQ       0.038800
      2 C10        -41.0780   -18.3630     7.7940 cx         1 QHQ      -0.021400
      3 C11        -41.6670   -17.5530     6.6680 cx         1 QHQ      -0.129900
      4 C12        -42.3060   -17.5450     8.0180 cx         1 QHQ      -0.129900
      5 C13        -38.1740   -17.4080     5.2510 ca         1 QHQ      -0.121000
      6 C14        -38.0120   -17.8500     3.9450 ca         1 QHQ      -0.144000
      7 C15        -38.2000   -19.1850     3.6230 ca         1 QHQ      -0.070000
      8 C16        -41.3430   -21.8800     4.9220 ca         1 QHQ      -0.253500
      9 C17        -41.3520   -22.8960     5.8630 ca         1 QHQ      -0.068000
     10 C18        -42.2620   -22.8400     6.9190 ca         1 QHQ       0.114100
     11 C19        -43.1340   -23.8740     8.8660 c3         1 QHQ       0.127700
     12 C2         -36.4740   -22.2220     5.1790 c          1 QHQ       0.944600
     13 C20        -43.1630   -21.7780     6.9930 ca         1 QHQ      -0.173000
     14 C21        -43.1380   -20.7820     6.0270 ca         1 QHQ      -0.117000
     15 C22        -42.2260   -20.8110     4.9850 ca         1 QHQ      -0.071000
     16 C3         -38.5690   -20.0900     4.6110 ca         1 QHQ       0.132600
     17 C4         -38.7550   -19.6510     5.9160 ca         1 QHQ      -0.124000
     18 C5         -38.5450   -18.3150     6.2310 ca         1 QHQ       0.036800
     19 C6         -38.0260   -17.1680     9.4370 cc         1 QHQ       0.317200
     20 C7         -39.3880   -17.4890     9.6070 cc         1 QHQ      -0.284900
     21 C8         -40.1560   -17.3700    10.8970 c          1 QHQ       0.953200
     22 C9         -39.7820   -17.9450     8.3600 cd         1 QHQ      -0.055600
     23 N1         -38.6990   -21.4720     4.2900 nh         1 QHQ      -0.539900
     24 N2         -38.6750   -17.8870     7.5730 na         1 QHQ       0.139300
     25 N3         -37.6010   -17.4140     8.2170 nd         1 QHQ      -0.550800
     26 O1         -40.5110   -20.9430     2.6310 o          1 QHQ      -0.634800
     27 O2         -35.9100   -22.7700     6.1440 o          1 QHQ      -0.815800
     28 O3         -35.9630   -21.6040     4.2350 o          1 QHQ      -0.815800
     29 O4         -41.2850   -17.8930    10.9490 o          1 QHQ      -0.842300
     30 O5         -39.5660   -16.7630    11.8150 o          1 QHQ      -0.842300
     31 O6         -42.2010   -23.8470     7.8030 os         1 QHQ      -0.316900
     32 O7         -39.9860   -23.3280     3.2080 o          1 QHQ      -0.634800
     33 S1         -40.1410   -21.9420     3.6170 sy         1 QHQ       1.267200
     34 H1         -38.3970   -22.3740     6.1930 h1         1 QHQ       0.041700
     35 H2         -38.2010   -23.4270     4.8060 h1         1 QHQ       0.041700
     36 H6         -41.2320   -19.4360     7.7310 hc         1 QHQ       0.080700
     37 H8         -41.1320   -16.6640     6.3580 hc         1 QHQ       0.064700
     38 H7         -42.1490   -18.0840     5.8590 hc         1 QHQ       0.064700
     39 H10        -42.2160   -16.6530     8.6220 hc         1 QHQ       0.064700
     40 H9         -43.2370   -18.0800     8.1520 hc         1 QHQ       0.064700
     41 H11        -38.0120   -16.3690     5.5070 ha         1 QHQ       0.133000
     42 H12        -37.7200   -17.1480     3.1760 ha         1 QHQ       0.114000
     43 H13        -38.0360   -19.5320     2.6130 ha         1 QHQ       0.147000
     44 H14        -40.6760   -23.7390     5.7960 ha         1 QHQ       0.163000
     45 H15        -42.9180   -24.7710     9.4410 h1         1 QHQ       0.036033
     46 H16        -43.0330   -23.0040     9.5190 h1         1 QHQ       0.036033
     47 H17        -44.1630   -23.9270     8.5020 h1         1 QHQ       0.036033
     48 H18        -43.8910   -21.7110     7.7900 ha         1 QHQ       0.130000
     49 H19        -43.8470   -19.9670     6.0950 ha         1 QHQ       0.126000
     50 H20        -42.2150   -20.0250     4.2450 ha         1 QHQ       0.156000
     51 H3         -39.0350   -20.3470     6.6970 ha         1 QHQ       0.155000
     52 H4         -37.3440   -16.7730    10.1750 h4         1 QHQ       0.030100
@<TRIPOS>BOND
     1     1    12 1   
     2     1    23 1   
     3     1    34 1   
     4     1    35 1   
     5     2     3 1   
     6     2     4 1   
     7     2    22 1   
     8     2    36 1   
     9     3     4 1   
    10     3    37 1   
    11     3    38 1   
    12     4    39 1   
    13     4    40 1   
    14     5     6 ar  
    15     5    18 ar  
    16     5    41 1   
    17     6     7 ar  
    18     6    42 1   
    19     7    16 ar  
    20     7    43 1   
    21     8     9 ar  
    22     8    15 ar  
    23     8    33 1   
    24     9    10 ar  
    25     9    44 1   
    26    10    13 ar  
    27    10    31 1   
    28    11    31 1   
    29    11    45 1   
    30    11    46 1   
    31    11    47 1   
    32    12    27 1   
    33    12    28 1   
    34    13    14 ar  
    35    13    48 1   
    36    14    15 ar  
    37    14    49 1   
    38    15    50 1   
    39    16    17 ar  
    40    16    23 1   
    41    17    18 ar  
    42    17    51 1   
    43    18    24 1   
    44    19    20 1   
    45    19    25 2   
    46    19    52 1   
    47    20    21 1   
    48    20    22 2   
    49    21    29 1   
    50    21    30 1   
    51    22    24 1   
    52    23    33 1   
    53    24    25 1   
    54    26    33 2   
    55    32    33 2   
@<TRIPOS>SUBSTRUCTURE
     1 QHQ         1 TEMP              0 ****  ****    0 ROOT
