@<TRIPOS>MOLECULE
QHR
   76    82     1     0     0
SMALL
abcg2


@<TRIPOS>ATOM
      1 N1           1.6500     4.2650   -15.9580 nb         1 QHR      -0.674000
      2 N3           5.1620    -3.3700   -21.3860 na         1 QHR       0.113800
      3 C4           2.8080     3.0240   -17.6730 ca         1 QHR      -0.066000
      4 C5           2.2010     3.1560   -16.4010 ca         1 QHR       0.341900
      5 C6           3.4270     4.0620   -19.7910 ca         1 QHR      -0.081000
      6 C7           3.9510     2.8730   -20.2120 ca         1 QHR      -0.091000
      7 C8           3.8990     1.7230   -19.3810 ca         1 QHR       0.157100
      8 C10          4.1200    -0.6690   -19.3180 c3         1 QHR       0.138300
      9 C13          3.3630    -2.1070   -21.3440 cc         1 QHR      -0.104000
     10 C15          2.0470    -1.4990   -21.6100 ca         1 QHR      -0.048000
     11 C17          0.6780     0.4140   -22.3960 ca         1 QHR      -0.102800
     12 C20          0.8550    -2.1310   -21.2680 ca         1 QHR      -0.102000
     13 C21          2.3180     1.7960   -23.1080 cc         1 QHR      -0.089300
     14 C22          0.9450     1.7060   -22.9680 cd         1 QHR      -0.163400
     15 C24         -0.0930     2.7560   -23.2210 c3         1 QHR       0.025800
     16 C26         -0.0840     3.3900   -20.7450 c3         1 QHR       0.160600
     17 C28         -2.5060     0.9280   -19.4800 ca         1 QHR      -0.060000
     18 C1           1.6650     5.3540   -16.7720 ca         1 QHR       0.293900
     19 C2           2.2320     5.3520   -18.0210 ca         1 QHR      -0.130000
     20 C3           2.8280     4.1720   -18.5110 ca         1 QHR      -0.048000
     21 C9           3.3510     1.7970   -18.1220 ca         1 QHR      -0.207000
     22 O1           4.4150     0.5990   -19.9390 os         1 QHR      -0.338100
     23 C11          4.2830    -1.7410   -20.3320 cc         1 QHR       0.250300
     24 N2           5.3680    -2.5140   -20.3640 nd         1 QHR      -0.517800
     25 C12          3.9700    -3.1660   -22.0050 cd         1 QHR      -0.127300
     26 C16          1.9320    -0.2260   -22.1910 ca         1 QHR      -0.043200
     27 C18         -0.4960    -0.2620   -22.0370 ca         1 QHR      -0.057000
     28 C19         -0.3970    -1.5260   -21.4820 ca         1 QHR      -0.165000
     29 N4           2.8940     0.6230   -22.6510 na         1 QHR      -0.195700
     30 C23          3.2140     2.8810   -23.6280 c          1 QHR       0.713200
     31 O2           4.4520     2.6360   -23.5890 o          1 QHR      -0.716500
     32 C25         -0.0770     3.8870   -22.1730 c3         1 QHR      -0.078400
     33 C27         -1.3480     1.7650   -19.5070 ca         1 QHR       0.183100
     34 C29         -2.5960    -0.0840   -18.4800 ca         1 QHR      -0.002000
     35 C30         -1.5510    -0.2270   -17.5310 ca         1 QHR      -0.161000
     36 C31         -0.4680     0.6080   -17.5770 ca         1 QHR      -0.051000
     37 C32         -0.3600     1.6120   -18.5620 ca         1 QHR      -0.213000
     38 C33         -3.5460     1.0540   -20.4300 ca         1 QHR      -0.062000
     39 C34         -4.6310     0.2140   -20.3980 ca         1 QHR      -0.143000
     40 C35         -4.7250    -0.7900   -19.4100 ca         1 QHR      -0.105000
     41 O3           2.6750     3.9340   -24.0480 o          1 QHR      -0.716500
     42 O4          -1.3040     2.6670   -20.5150 os         1 QHR      -0.358100
     43 C36         -3.7300    -0.9320   -18.4760 ca         1 QHR      -0.118000
     44 C37          3.5140    -3.9800   -23.1620 c3         1 QHR      -0.027800
     45 H1           2.1750     2.2920   -15.7430 h4         1 QHR       0.008100
     46 H2           3.4470     4.9270   -20.4420 ha         1 QHR       0.136000
     47 H3           4.3880     2.7740   -21.1970 ha         1 QHR       0.183000
     48 H4           3.0890    -0.6510   -18.9600 h1         1 QHR       0.052200
     49 H5           4.7900    -0.8270   -18.4710 h1         1 QHR       0.052200
     50 H6           0.9010    -3.1120   -20.8110 ha         1 QHR       0.091000
     51 H7           0.0480     3.2060   -24.2050 hc         1 QHR       0.041700
     52 H8          -1.0770     2.2830   -23.2210 hc         1 QHR       0.041700
     53 H9           0.7650     2.7250   -20.5820 h1         1 QHR       0.044200
     54 H10         -0.0150     4.2150   -20.0310 h1         1 QHR       0.044200
     55 H11          1.1970     6.2480   -16.3780 h4         1 QHR       0.008100
     56 H12          2.2190     6.2460   -18.6320 ha         1 QHR       0.120000
     57 H13          3.3100     0.9400   -17.4650 ha         1 QHR       0.114000
     58 H14          6.9850    -4.2590   -21.0250 h1         1 QHR       0.051033
     59 H15          5.7340    -5.3750   -21.6160 h1         1 QHR       0.051033
     60 H16          6.5100    -4.2370   -22.7380 h1         1 QHR       0.051033
     61 H17         -1.4630     0.2010   -22.1760 ha         1 QHR       0.110000
     62 H18         -1.2950    -2.0540   -21.1890 ha         1 QHR       0.098000
     63 H19          3.8900     0.5070   -22.5710 hn         1 QHR       0.374000
     64 H20          0.8340     4.4730   -22.3080 hc         1 QHR       0.057700
     65 H21         -0.9280     4.5540   -22.3390 hc         1 QHR       0.057700
     66 H22         -1.6270    -1.0020   -16.7780 ha         1 QHR       0.103000
     67 H23          0.3330     0.5070   -16.8540 ha         1 QHR       0.102000
     68 H24          0.5100     2.2470   -18.5690 ha         1 QHR       0.130000
     69 H25         -3.4700     1.8190   -21.1910 ha         1 QHR       0.129000
     70 H26         -5.4190     0.3180   -21.1330 ha         1 QHR       0.104000
     71 H27         -5.5840    -1.4490   -19.3950 ha         1 QHR       0.099000
     72 H29         -3.7960    -1.7030   -17.7170 ha         1 QHR       0.102000
     73 H30          3.3990    -5.0320   -22.8900 hc         1 QHR       0.050033
     74 H31          2.5520    -3.6110   -23.5130 hc         1 QHR       0.050033
     75 H32          4.2270    -3.9300   -23.9890 hc         1 QHR       0.050033
     76 C14          6.1550    -4.3750   -21.7150 c3         1 QHR       0.077900
@<TRIPOS>BOND
     1     1     4 ar  
     2     1    18 ar  
     3     2    24 1   
     4     2    25 1   
     5     2    76 1   
     6     3     4 ar  
     7     3    20 ar  
     8     3    21 ar  
     9     4    45 1   
    10     5     6 ar  
    11     5    20 ar  
    12     5    46 1   
    13     6     7 ar  
    14     6    47 1   
    15     7    21 ar  
    16     7    22 1   
    17     8    22 1   
    18     8    23 1   
    19     8    48 1   
    20     8    49 1   
    21     9    10 1   
    22     9    23 1   
    23     9    25 2   
    24    10    12 ar  
    25    10    26 ar  
    26    11    14 1   
    27    11    26 ar  
    28    11    27 ar  
    29    12    28 ar  
    30    12    50 1   
    31    13    14 2   
    32    13    29 1   
    33    13    30 1   
    34    14    15 1   
    35    15    32 1   
    36    15    51 1   
    37    15    52 1   
    38    16    32 1   
    39    16    42 1   
    40    16    53 1   
    41    16    54 1   
    42    17    33 ar  
    43    17    34 ar  
    44    17    38 ar  
    45    18    19 ar  
    46    18    55 1   
    47    19    20 ar  
    48    19    56 1   
    49    21    57 1   
    50    23    24 2   
    51    25    44 1   
    52    26    29 1   
    53    27    28 ar  
    54    27    61 1   
    55    28    62 1   
    56    29    63 1   
    57    30    31 1   
    58    30    41 1   
    59    32    64 1   
    60    32    65 1   
    61    33    37 ar  
    62    33    42 1   
    63    34    35 ar  
    64    34    43 ar  
    65    35    36 ar  
    66    35    66 1   
    67    36    37 ar  
    68    36    67 1   
    69    37    68 1   
    70    38    39 ar  
    71    38    69 1   
    72    39    40 ar  
    73    39    70 1   
    74    40    43 ar  
    75    40    71 1   
    76    43    72 1   
    77    44    73 1   
    78    44    74 1   
    79    44    75 1   
    80    58    76 1   
    81    59    76 1   
    82    60    76 1   
@<TRIPOS>SUBSTRUCTURE
     1 QHR         1 TEMP              0 ****  ****    0 ROOT
