@<TRIPOS>MOLECULE
QHR
   76    82     1     0     0
SMALL
No Charge or Current Charge


@<TRIPOS>ATOM
      1 N1           2.0610     5.1230   -16.2640 nb         1 QHR      -0.674000
      2 N3           4.6760    -3.3490   -21.1320 na         1 QHR       0.113800
      3 C4           3.1460     3.5910   -17.8150 ca         1 QHR      -0.066000
      4 C5           2.2280     3.8810   -16.7820 ca         1 QHR       0.341900
      5 C6           4.8570     4.3860   -19.3620 ca         1 QHR      -0.081000
      6 C7           4.9940     3.0820   -19.8710 ca         1 QHR      -0.091000
      7 C8           4.2110     2.0310   -19.3660 ca         1 QHR       0.157100
      8 C10          3.5910    -0.3500   -19.4800 c3         1 QHR       0.138300
      9 C13          2.9170    -2.0590   -21.2720 cc         1 QHR      -0.104000
     10 C15          1.6860    -1.4600   -21.7990 ca         1 QHR      -0.048000
     11 C17          0.4420     0.4580   -22.6180 ca         1 QHR      -0.102800
     12 C20          0.5000    -2.2270   -21.9000 ca         1 QHR      -0.102000
     13 C21          2.1250     2.0490   -22.8250 cc         1 QHR      -0.089300
     14 C22          0.7430     1.8360   -22.9600 cd         1 QHR      -0.163400
     15 C24         -0.3230     2.8660   -23.2870 c3         1 QHR       0.025800
     16 C26         -0.4780     3.3120   -20.7150 c3         1 QHR       0.160600
     17 C28         -2.3520     0.2840   -19.5420 ca         1 QHR      -0.060000
     18 C1           2.8190     6.1220   -16.7730 ca         1 QHR       0.293900
     19 C2           3.7600     5.9270   -17.8010 ca         1 QHR      -0.130000
     20 C3           3.9310     4.6390   -18.3350 ca         1 QHR      -0.048000
     21 C9           3.2860     2.2860   -18.3270 ca         1 QHR      -0.207000
     22 O1           4.3730     0.7770   -19.9220 os         1 QHR      -0.338100
     23 C11          3.8610    -1.5560   -20.3530 cc         1 QHR       0.250300
     24 N2           4.9260    -2.3260   -20.2250 nd         1 QHR      -0.517800
     25 C12          3.4530    -3.1970   -21.8030 cd         1 QHR      -0.127300
     26 C16          1.6100    -0.1090   -22.1930 ca         1 QHR      -0.043200
     27 C18         -0.7510    -0.2760   -22.6930 ca         1 QHR      -0.057000
     28 C19         -0.7090    -1.6380   -22.3340 ca         1 QHR      -0.165000
     29 N4           2.6200     0.8270   -22.3180 na         1 QHR      -0.195700
     30 C23          2.9100     3.2860   -23.1460 c          1 QHR       0.713200
     31 O2           4.1200     3.2410   -22.9760 o          1 QHR      -0.716500
     32 C25         -0.5740     3.8910   -22.1450 c3         1 QHR      -0.078400
     33 C27         -1.4260     1.3560   -19.5400 ca         1 QHR       0.183100
     34 C29         -2.2890    -0.6990   -18.5260 ca         1 QHR      -0.002000
     35 C30         -1.3200    -0.6030   -17.5120 ca         1 QHR      -0.161000
     36 C31         -0.4130     0.4660   -17.5000 ca         1 QHR      -0.051000
     37 C32         -0.4650     1.4430   -18.5070 ca         1 QHR      -0.213000
     38 C33         -3.3390     0.1720   -20.5470 ca         1 QHR      -0.062000
     39 C34         -4.2400    -0.9060   -20.5420 ca         1 QHR      -0.143000
     40 C35         -4.1690    -1.8800   -19.5340 ca         1 QHR      -0.105000
     41 O3           2.3590     4.2720   -23.6130 o          1 QHR      -0.716500
     42 O4          -1.4730     2.2840   -20.5660 os         1 QHR      -0.358100
     43 C36         -3.1960    -1.7760   -18.5270 ca         1 QHR      -0.118000
     44 C37          2.9540    -4.1070   -22.9030 c3         1 QHR      -0.027800
     45 H1           1.6050     3.0960   -16.3540 h4         1 QHR       0.008100
     46 H2           5.4640     5.1930   -19.7670 ha         1 QHR       0.136000
     47 H3           5.7020     2.8850   -20.6720 ha         1 QHR       0.183000
     48 H4           2.5190    -0.1170   -19.5230 h1         1 QHR       0.052200
     49 H5           3.8360    -0.6010   -18.4400 h1         1 QHR       0.052200
     50 H6           0.5040    -3.2720   -21.6030 ha         1 QHR       0.091000
     51 H7          -0.0740     3.4030   -24.2100 hc         1 QHR       0.041700
     52 H8          -1.2720     2.3630   -23.5000 hc         1 QHR       0.041700
     53 H9           0.5320     2.9070   -20.5700 h1         1 QHR       0.044200
     54 H10         -0.6340     4.1100   -19.9770 h1         1 QHR       0.044200
     55 H11          2.6680     7.1110   -16.3420 h4         1 QHR       0.008100
     56 H12          4.3400     6.7690   -18.1680 ha         1 QHR       0.120000
     57 H13          2.6740     1.4920   -17.9110 ha         1 QHR       0.114000
     58 H14          6.4130    -4.3980   -20.5290 h1         1 QHR       0.051033
     59 H15          5.1320    -5.4040   -21.2650 h1         1 QHR       0.051033
     60 H16          6.1320    -4.3340   -22.2950 h1         1 QHR       0.051033
     61 H17         -1.6760     0.1770   -23.0360 ha         1 QHR       0.110000
     62 H18         -1.6150    -2.2360   -22.3850 ha         1 QHR       0.098000
     63 H19          3.5900     0.6700   -22.0670 hn         1 QHR       0.374000
     64 H20          0.1590     4.7000   -22.2240 hc         1 QHR       0.057700
     65 H21         -1.5570     4.3570   -22.2850 hc         1 QHR       0.057700
     66 H22         -1.2690    -1.3570   -16.7290 ha         1 QHR       0.103000
     67 H23          0.3310     0.5380   -16.7090 ha         1 QHR       0.102000
     68 H24          0.2470     2.2590   -18.4680 ha         1 QHR       0.130000
     69 H25         -3.4120     0.9160   -21.3360 ha         1 QHR       0.129000
     70 H26         -4.9940    -0.9860   -21.3210 ha         1 QHR       0.104000
     71 H27         -4.8670    -2.7150   -19.5310 ha         1 QHR       0.099000
     72 H29         -3.1470    -2.5330   -17.7470 ha         1 QHR       0.102000
     73 H30          2.3320    -4.9120   -22.4940 hc         1 QHR       0.050033
     74 H31          2.3520    -3.5560   -23.6350 hc         1 QHR       0.050033
     75 H32          3.7820    -4.5710   -23.4520 hc         1 QHR       0.050033
     76 C14          5.6490    -4.4380   -21.3160 c3         1 QHR       0.077900
@<TRIPOS>BOND
     1     1     4 ar  
     2     1    18 ar  
     3     2    24 1   
     4     2    25 1   
     5     2    76 1   
     6     3     4 ar  
     7     3    20 ar  
     8     3    21 ar  
     9     4    45 1   
    10     5     6 ar  
    11     5    20 ar  
    12     5    46 1   
    13     6     7 ar  
    14     6    47 1   
    15     7    21 ar  
    16     7    22 1   
    17     8    22 1   
    18     8    23 1   
    19     8    48 1   
    20     8    49 1   
    21     9    10 1   
    22     9    23 1   
    23     9    25 2   
    24    10    12 ar  
    25    10    26 ar  
    26    11    14 1   
    27    11    26 ar  
    28    11    27 ar  
    29    12    28 ar  
    30    12    50 1   
    31    13    14 2   
    32    13    29 1   
    33    13    30 1   
    34    14    15 1   
    35    15    32 1   
    36    15    51 1   
    37    15    52 1   
    38    16    32 1   
    39    16    42 1   
    40    16    53 1   
    41    16    54 1   
    42    17    33 ar  
    43    17    34 ar  
    44    17    38 ar  
    45    18    19 ar  
    46    18    55 1   
    47    19    20 ar  
    48    19    56 1   
    49    21    57 1   
    50    23    24 2   
    51    25    44 1   
    52    26    29 1   
    53    27    28 ar  
    54    27    61 1   
    55    28    62 1   
    56    29    63 1   
    57    30    31 1   
    58    30    41 1   
    59    32    64 1   
    60    32    65 1   
    61    33    37 ar  
    62    33    42 1   
    63    34    35 ar  
    64    34    43 ar  
    65    35    36 ar  
    66    35    66 1   
    67    36    37 ar  
    68    36    67 1   
    69    37    68 1   
    70    38    39 ar  
    71    38    69 1   
    72    39    40 ar  
    73    39    70 1   
    74    40    43 ar  
    75    40    71 1   
    76    43    72 1   
    77    44    73 1   
    78    44    74 1   
    79    44    75 1   
    80    58    76 1   
    81    59    76 1   
    82    60    76 1   
@<TRIPOS>SUBSTRUCTURE
     1 QHR         1 TEMP              0 ****  ****    0 ROOT
