@<TRIPOS>MOLECULE
QHS
   76    79     1     0     0
SMALL
No Charge or Current Charge


@<TRIPOS>ATOM
      1 N1          76.0340   -46.6160    22.5760 ns         1 QHS      -0.447900
      2 C4          76.2550   -45.6260    24.8780 c3         1 QHS      -0.254400
      3 C5          76.2800   -43.0300    23.6290 c3         1 QHS      -0.297400
      4 C6          75.8140   -41.5500    23.4740 c6         1 QHS      -0.022700
      5 C7          76.8960   -40.7360    22.7110 c6         1 QHS      -0.077900
      6 C8          76.4820   -39.2550    22.5280 c6         1 QHS      -0.070900
      7 C10         74.0290   -39.9370    22.5740 c6         1 QHS      -0.070900
      8 C13         74.2510   -44.6320    19.1560 ca         1 QHS      -0.081300
      9 C15         74.4200   -42.2060    18.9280 ca         1 QHS      -0.117000
     10 C20         73.4970   -48.5740    19.7980 ca         1 QHS      -0.125600
     11 C21         74.3310   -49.0970    18.7830 ca         1 QHS      -0.079000
     12 C22         73.8370   -50.0420    17.8680 ca         1 QHS      -0.106500
     13 C24         71.9810   -51.5200    16.9650 cp         1 QHS      -0.027000
     14 C26         70.5540   -53.4550    16.4430 ca         1 QHS      -0.114000
     15 C28         71.9160   -52.4610    14.6930 ca         1 QHS      -0.114000
     16 C1          76.0140   -46.1520    21.2810 c          1 QHS       0.659100
     17 C2          76.9880   -46.2040    23.6310 c3         1 QHS      -0.021300
     18 S           75.2450   -44.1510    24.6000 s6         1 QHS       1.029000
     19 O3          75.0130   -43.5280    25.9090 o          1 QHS      -0.552000
     20 O4          74.0890   -44.5360    23.7800 o          1 QHS      -0.552000
     21 C11         74.4390   -41.4200    22.7570 c6         1 QHS      -0.077900
     22 C9          75.1160   -39.1430    21.8120 c6         1 QHS      -0.074400
     23 C3          77.9070   -47.4100    24.0060 c          1 QHS       0.730000
     24 O2          77.3850   -48.4180    24.4650 o          1 QHS      -0.702000
     25 O1          79.1080   -47.3090    23.7940 o          1 QHS      -0.702000
     26 N           75.0180   -46.6680    20.4300 n          1 QHS      -0.372400
     27 C12         74.8880   -46.0170    19.0970 c3         1 QHS       0.158300
     28 C19         72.8790   -44.4960    19.4410 ca         1 QHS      -0.081000
     29 C18         72.2820   -43.2240    19.4670 ca         1 QHS      -0.117000
     30 C16         73.0480   -42.0730    19.2080 ca         1 QHS      -0.085300
     31 C14         75.0190   -43.4780    18.9040 ca         1 QHS      -0.081000
     32 C           74.0060   -47.5730    20.8160 c          1 QHS       0.627700
     33 O           73.6160   -47.6440    21.9740 o          1 QHS      -0.562100
     34 C31         72.1750   -49.0560    19.8970 ca         1 QHS      -0.079000
     35 C30         71.6850   -50.0020    18.9810 ca         1 QHS      -0.106500
     36 C23         72.5030   -50.5120    17.9430 cp         1 QHS      -0.034000
     37 C29         72.4060   -51.5170    15.6120 ca         1 QHS      -0.099000
     38 C27         70.9900   -53.4310    15.1080 ca         1 QHS      -0.114000
     39 C25         71.0440   -52.5090    17.3600 ca         1 QHS      -0.099000
     40 H1          75.2820   -47.2540    22.8200 hn         1 QHS       0.359500
     41 H2          75.5840   -46.3730    25.3150 h1         1 QHS       0.111700
     42 H3          76.9920   -45.3350    25.6350 h1         1 QHS       0.111700
     43 H4          76.3720   -43.4900    22.6400 h1         1 QHS       0.107700
     44 H5          77.2600   -43.0500    24.1180 h1         1 QHS       0.107700
     45 H6          75.7220   -41.1370    24.4890 hc         1 QHS       0.056700
     46 H7          77.0750   -41.1890    21.7250 hc         1 QHS       0.050700
     47 H8          77.8520   -40.7830    23.2520 hc         1 QHS       0.050700
     48 H9          77.2500   -38.7220    21.9500 hc         1 QHS       0.032200
     49 H10         76.4290   -38.7610    23.5080 hc         1 QHS       0.032200
     50 H11         73.8580   -39.4780    23.5570 hc         1 QHS       0.032200
     51 H12         73.0750   -39.8780    22.0340 hc         1 QHS       0.032200
     52 H13         75.0260   -41.3250    18.7270 ha         1 QHS       0.103000
     53 H14         71.8580   -40.5180    18.2780 hc         1 QHS       0.035033
     54 H15         71.6650   -40.6170    20.0360 hc         1 QHS       0.035033
     55 H16         73.1280   -39.9000    19.3470 hc         1 QHS       0.035033
     56 H17         75.3710   -48.7840    18.7080 ha         1 QHS       0.129000
     57 H18         74.5070   -50.4300    17.1050 ha         1 QHS       0.113000
     58 H19         69.8390   -54.2070    16.7680 ha         1 QHS       0.108500
     59 H20         72.2530   -52.4390    13.6590 ha         1 QHS       0.108500
     60 H21         77.6520   -45.4280    23.2300 h1         1 QHS       0.068700
     61 H22         73.6540   -41.9290    23.3300 hc         1 QHS       0.050700
     62 H23         74.4810   -41.9160    21.7780 hc         1 QHS       0.050700
     63 H24         75.2040   -39.5250    20.7850 hc         1 QHS       0.032200
     64 H25         74.8210   -38.0890    21.7310 hc         1 QHS       0.032200
     65 H27         74.2730   -46.6180    18.4190 h1         1 QHS       0.058200
     66 H28         75.8790   -45.9500    18.6300 h1         1 QHS       0.058200
     67 H29         72.2710   -45.3770    19.6340 ha         1 QHS       0.116000
     68 H30         71.2200   -43.1340    19.6830 ha         1 QHS       0.103000
     69 H31         76.0810   -43.5660    18.6860 ha         1 QHS       0.116000
     70 H32         71.5170   -48.6860    20.6820 ha         1 QHS       0.129000
     71 H33         70.6540   -50.3330    19.0710 ha         1 QHS       0.113000
     72 H34         73.1130   -50.7660    15.2660 ha         1 QHS       0.116000
     73 H35         70.6100   -54.1630    14.3980 ha         1 QHS       0.107000
     74 H36         70.7030   -52.5540    18.3920 ha         1 QHS       0.116000
     75 C17         72.3900   -40.7010    19.2190 c3         1 QHS      -0.041800
     76 O5          76.8540   -45.3560    20.8870 o          1 QHS      -0.663100
@<TRIPOS>BOND
     1     1    16 1   
     2     1    17 1   
     3     1    40 1   
     4     2    17 1   
     5     2    18 1   
     6     2    41 1   
     7     2    42 1   
     8     3     4 1   
     9     3    18 1   
    10     3    43 1   
    11     3    44 1   
    12     4     5 1   
    13     4    21 1   
    14     4    45 1   
    15     5     6 1   
    16     5    46 1   
    17     5    47 1   
    18     6    22 1   
    19     6    48 1   
    20     6    49 1   
    21     7    21 1   
    22     7    22 1   
    23     7    50 1   
    24     7    51 1   
    25     8    27 1   
    26     8    28 ar  
    27     8    31 ar  
    28     9    30 ar  
    29     9    31 ar  
    30     9    52 1   
    31    10    11 ar  
    32    10    32 1   
    33    10    34 ar  
    34    11    12 ar  
    35    11    56 1   
    36    12    36 ar  
    37    12    57 1   
    38    13    36 1   
    39    13    37 ar  
    40    13    39 ar  
    41    14    38 ar  
    42    14    39 ar  
    43    14    58 1   
    44    15    37 ar  
    45    15    38 ar  
    46    15    59 1   
    47    16    26 1   
    48    16    76 2   
    49    17    23 1   
    50    17    60 1   
    51    18    19 2   
    52    18    20 2   
    53    21    61 1   
    54    21    62 1   
    55    22    63 1   
    56    22    64 1   
    57    23    24 1   
    58    23    25 1   
    59    26    27 1   
    60    26    32 1   
    61    27    65 1   
    62    27    66 1   
    63    28    29 ar  
    64    28    67 1   
    65    29    30 ar  
    66    29    68 1   
    67    30    75 1   
    68    31    69 1   
    69    32    33 2   
    70    34    35 ar  
    71    34    70 1   
    72    35    36 ar  
    73    35    71 1   
    74    37    72 1   
    75    38    73 1   
    76    39    74 1   
    77    53    75 1   
    78    54    75 1   
    79    55    75 1   
@<TRIPOS>SUBSTRUCTURE
     1 QHS         1 TEMP              0 ****  ****    0 ROOT
