@<TRIPOS>MOLECULE
QHS
   76    79     1     0     0
SMALL
bcc


@<TRIPOS>ATOM
      1 N1          76.7470   -46.7140    22.7140 ns         1 QHS      -0.514900
      2 C4          76.5110   -45.5290    24.8560 c3         1 QHS      -0.143600
      3 C5          76.1550   -42.9670    23.6830 c3         1 QHS      -0.186600
      4 C6          75.3050   -41.7180    23.4550 c6         1 QHS      -0.022700
      5 C7          76.2490   -40.5850    23.0360 c6         1 QHS      -0.077900
      6 C8          75.4980   -39.2910    22.7460 c6         1 QHS      -0.070900
      7 C10         73.4680   -40.6100    22.1160 c6         1 QHS      -0.070900
      8 C13         74.8440   -45.0140    19.1740 ca         1 QHS      -0.081300
      9 C15         74.5970   -42.7840    18.2730 ca         1 QHS      -0.135000
     10 C20         74.1090   -48.6310    19.8850 ca         1 QHS      -0.125600
     11 C21         74.6860   -49.3880    18.8710 ca         1 QHS      -0.097000
     12 C22         73.8860   -50.0930    17.9870 ca         1 QHS      -0.124500
     13 C24         71.6410   -50.7920    17.1360 cp         1 QHS      -0.027000
     14 C26         69.6770   -52.1260    16.6710 ca         1 QHS      -0.132000
     15 C28         71.1720   -51.5480    14.8860 ca         1 QHS      -0.132000
     16 C1          76.5440   -46.1720    21.5130 c          1 QHS       0.793100
     17 C2          77.4580   -46.0460    23.7710 c3         1 QHS      -0.021300
     18 S           75.2430   -44.3710    24.3310 s6         1 QHS       0.949000
     19 O3          74.5300   -43.9430    25.5400 o          1 QHS      -0.622800
     20 O4          74.4450   -44.9870    23.2670 o          1 QHS      -0.622800
     21 C11         74.2110   -41.9090    22.4030 c6         1 QHS      -0.077900
     22 C9          74.4220   -39.5040    21.6870 c6         1 QHS      -0.074400
     23 C3          78.5130   -46.9850    24.4460 c          1 QHS       0.940600
     24 O2          78.6550   -48.1140    23.9590 o          1 QHS      -0.807300
     25 O1          79.1080   -46.4760    25.4120 o          1 QHS      -0.807300
     26 N           75.7020   -46.8830    20.6040 n          1 QHS      -0.506400
     27 C12         75.6430   -46.2880    19.2670 c3         1 QHS       0.158300
     28 C19         73.5610   -44.9100    19.6990 ca         1 QHS      -0.099000
     29 C18         72.8050   -43.7620    19.5040 ca         1 QHS      -0.135000
     30 C16         73.3040   -42.6820    18.7810 ca         1 QHS      -0.085300
     31 C14         75.3540   -43.9290    18.4690 ca         1 QHS      -0.099000
     32 C           74.9390   -47.9720    20.9440 c          1 QHS       0.694700
     33 O           74.8900   -48.4430    22.0670 o          1 QHS      -0.562100
     34 C31         72.7250   -48.6040    20.0110 ca         1 QHS      -0.097000
     35 C30         71.9290   -49.2940    19.1130 ca         1 QHS      -0.124500
     36 C23         72.4940   -50.0530    18.0870 cp         1 QHS      -0.034000
     37 C29         71.9760   -50.8600    15.7820 ca         1 QHS      -0.117000
     38 C27         70.0190   -52.1840    15.3270 ca         1 QHS      -0.132000
     39 C25         70.4800   -51.4360    17.5670 ca         1 QHS      -0.117000
     40 H1          76.2580   -47.5680    22.9390 hn         1 QHS       0.359500
     41 H2          75.9440   -46.3480    25.3100 h1         1 QHS       0.111700
     42 H3          77.0770   -45.0300    25.6410 h1         1 QHS       0.111700
     43 H4          76.6280   -43.2970    22.7570 h1         1 QHS       0.107700
     44 H5          76.9410   -42.7630    24.4170 h1         1 QHS       0.107700
     45 H6          74.8380   -41.4340    24.4050 hc         1 QHS       0.056700
     46 H7          76.7930   -40.8950    22.1360 hc         1 QHS       0.050700
     47 H8          76.9990   -40.4220    23.8140 hc         1 QHS       0.050700
     48 H9          76.2030   -38.5190    22.4300 hc         1 QHS       0.032200
     49 H10         75.0300   -38.9290    23.6670 hc         1 QHS       0.032200
     50 H11         72.9290   -40.2930    23.0150 hc         1 QHS       0.032200
     51 H12         72.7130   -40.7850    21.3470 hc         1 QHS       0.032200
     52 H13         75.0210   -41.9560    17.7170 ha         1 QHS       0.121000
     53 H14         72.1770   -41.3830    17.4910 hc         1 QHS       0.035033
     54 H15         71.5710   -41.4560    19.1420 hc         1 QHS       0.035033
     55 H16         73.0340   -40.5450    18.7730 hc         1 QHS       0.035033
     56 H17         75.7640   -49.4400    18.7720 ha         1 QHS       0.147000
     57 H18         74.3560   -50.6960    17.2210 ha         1 QHS       0.131000
     58 H19         68.7840   -52.6240    17.0270 ha         1 QHS       0.126500
     59 H20         71.4440   -51.5810    13.8390 ha         1 QHS       0.126500
     60 H21         78.0090   -45.2080    23.3430 h1         1 QHS       0.068700
     61 H22         73.4970   -42.6710    22.7160 hc         1 QHS       0.050700
     62 H23         74.6690   -42.2760    21.4780 hc         1 QHS       0.050700
     63 H24         74.8940   -39.7810    20.7370 hc         1 QHS       0.032200
     64 H25         73.8760   -38.5750    21.5050 hc         1 QHS       0.032200
     65 H27         75.2080   -47.0190    18.5920 h1         1 QHS       0.058200
     66 H28         76.6580   -46.1210    18.9110 h1         1 QHS       0.058200
     67 H29         73.1300   -45.7280    20.2640 ha         1 QHS       0.134000
     68 H30         71.8070   -43.7090    19.9230 ha         1 QHS       0.121000
     69 H31         76.3570   -43.9800    18.0600 ha         1 QHS       0.134000
     70 H32         72.2600   -48.0290    20.8030 ha         1 QHS       0.147000
     71 H33         70.8530   -49.2290    19.2090 ha         1 QHS       0.131000
     72 H34         72.8620   -50.3520    15.4200 ha         1 QHS       0.134000
     73 H35         69.3910   -52.7210    14.6270 ha         1 QHS       0.125000
     74 H36         70.2090   -51.4160    18.6160 ha         1 QHS       0.134000
     75 C17         72.4780   -41.4530    18.5380 c3         1 QHS      -0.041800
     76 O5          77.0580   -45.1370    21.1250 o          1 QHS      -0.663100
@<TRIPOS>BOND
     1     1    16 1   
     2     1    17 1   
     3     1    40 1   
     4     2    17 1   
     5     2    18 1   
     6     2    41 1   
     7     2    42 1   
     8     3     4 1   
     9     3    18 1   
    10     3    43 1   
    11     3    44 1   
    12     4     5 1   
    13     4    21 1   
    14     4    45 1   
    15     5     6 1   
    16     5    46 1   
    17     5    47 1   
    18     6    22 1   
    19     6    48 1   
    20     6    49 1   
    21     7    21 1   
    22     7    22 1   
    23     7    50 1   
    24     7    51 1   
    25     8    27 1   
    26     8    28 ar  
    27     8    31 ar  
    28     9    30 ar  
    29     9    31 ar  
    30     9    52 1   
    31    10    11 ar  
    32    10    32 1   
    33    10    34 ar  
    34    11    12 ar  
    35    11    56 1   
    36    12    36 ar  
    37    12    57 1   
    38    13    36 1   
    39    13    37 ar  
    40    13    39 ar  
    41    14    38 ar  
    42    14    39 ar  
    43    14    58 1   
    44    15    37 ar  
    45    15    38 ar  
    46    15    59 1   
    47    16    26 1   
    48    16    76 2   
    49    17    23 1   
    50    17    60 1   
    51    18    19 2   
    52    18    20 2   
    53    21    61 1   
    54    21    62 1   
    55    22    63 1   
    56    22    64 1   
    57    23    24 1   
    58    23    25 1   
    59    26    27 1   
    60    26    32 1   
    61    27    65 1   
    62    27    66 1   
    63    28    29 ar  
    64    28    67 1   
    65    29    30 ar  
    66    29    68 1   
    67    30    75 1   
    68    31    69 1   
    69    32    33 2   
    70    34    35 ar  
    71    34    70 1   
    72    35    36 ar  
    73    35    71 1   
    74    37    72 1   
    75    38    73 1   
    76    39    74 1   
    77    53    75 1   
    78    54    75 1   
    79    55    75 1   
@<TRIPOS>SUBSTRUCTURE
     1 QHS         1 TEMP              0 ****  ****    0 ROOT
