@<TRIPOS>MOLECULE
QHT
   55    58     1     0     0
SMALL
bcc


@<TRIPOS>ATOM
      1 C1         -38.5800   -19.6910     5.6200 ca         1 QHT       0.097600
      2 C10        -40.6550   -17.4160     8.6020 cx         1 QHT      -0.037400
      3 C11        -41.9530   -16.6810     8.4960 cx         1 QHT      -0.123900
      4 C12        -41.4190   -17.4120     7.3080 cx         1 QHT      -0.123900
      5 C13        -38.6700   -18.8810     6.7440 ca         1 QHT      -0.161000
      6 C14        -40.7820   -23.0150     5.6910 ca         1 QHT      -0.271500
      7 C15        -40.1850   -24.2010     5.2290 ca         1 QHT       0.030700
      8 C16        -38.9900   -24.2570     4.3150 c3         1 QHT      -0.066800
      9 C17        -40.7100   -25.4110     5.6940 ca         1 QHT      -0.108800
     10 C18        -40.1720   -26.7330     5.2260 c3         1 QHT      -0.044300
     11 C19        -41.7530   -25.3890     6.6080 ca         1 QHT      -0.072000
     12 C2         -38.0950   -19.1780     4.4220 ca         1 QHT      -0.146000
     13 C20        -42.2630   -24.2160     7.1440 ca         1 QHT      -0.108800
     14 C21        -43.3460   -24.2930     8.1830 c3         1 QHT      -0.044300
     15 C22        -41.7560   -22.9860     6.7050 ca         1 QHT       0.030700
     16 C23        -42.2540   -21.7400     7.3910 c3         1 QHT      -0.066800
     17 C3         -37.7170   -17.8440     4.3620 ca         1 QHT      -0.113000
     18 C4         -37.8130   -17.0220     5.4740 ca         1 QHT      -0.126000
     19 C5         -38.2910   -17.5490     6.6680 ca         1 QHT       0.078800
     20 C6         -37.7170   -15.3180     9.2200 cc         1 QHT       0.339200
     21 C7         -38.9710   -15.7580     9.6870 cc         1 QHT      -0.269900
     22 C8         -39.6340   -15.3330    10.9690 c          1 QHT       0.949200
     23 C9         -39.3910   -16.6650     8.7320 cd         1 QHT      -0.054600
     24 N1         -38.9640   -21.0510     5.7140 nu         1 QHT      -0.655500
     25 N2         -38.3890   -16.7260     7.8070 na         1 QHT       0.127300
     26 N3         -37.3710   -15.9030     8.0960 nd         1 QHT      -0.574800
     27 O1         -39.9770   -21.7360     3.4860 o          1 QHT      -0.606300
     28 O2         -40.6320   -15.9800    11.3400 o          1 QHT      -0.827300
     29 O3         -39.0970   -14.3700    11.5550 o          1 QHT      -0.827300
     30 O4         -41.4060   -20.4930     5.0410 o          1 QHT      -0.606300
     31 S1         -40.3560   -21.4880     4.8680 sy         1 QHT       1.242200
     32 H6         -40.6910   -18.3420     9.1680 hc         1 QHT       0.076700
     33 H7         -41.9160   -15.6000     8.4830 hc         1 QHT       0.070950
     34 H8         -42.8040   -17.0910     9.0250 hc         1 QHT       0.070950
     35 H10        -41.0320   -16.8240     6.4860 hc         1 QHT       0.070950
     36 H9         -41.8910   -18.3380     7.0050 hc         1 QHT       0.070950
     37 H11        -39.0280   -19.2980     7.6760 ha         1 QHT       0.147000
     38 H14        -38.3480   -23.3860     4.3910 hc         1 QHT       0.060700
     39 H12        -38.3810   -25.1220     4.5710 hc         1 QHT       0.060700
     40 H13        -39.2810   -24.3690     3.2690 hc         1 QHT       0.060700
     41 H16        -39.1600   -26.9120     5.5970 hc         1 QHT       0.041867
     42 H15        -40.7980   -27.5490     5.5820 hc         1 QHT       0.041867
     43 H17        -40.1280   -26.7960     4.1380 hc         1 QHT       0.041867
     44 H18        -42.1670   -26.3330     6.9430 ha         1 QHT       0.125000
     45 H2         -37.9950   -19.8140     3.5540 ha         1 QHT       0.148000
     46 H20        -44.2020   -23.6670     7.9270 hc         1 QHT       0.041867
     47 H21        -43.7030   -25.3160     8.2900 hc         1 QHT       0.041867
     48 H19        -42.9930   -23.9660     9.1630 hc         1 QHT       0.041867
     49 H22        -43.1420   -21.3310     6.9080 hc         1 QHT       0.060700
     50 H23        -42.5260   -21.9780     8.4160 hc         1 QHT       0.060700
     51 H24        -41.5130   -20.9470     7.4410 hc         1 QHT       0.060700
     52 H3         -37.3390   -17.4390     3.4320 ha         1 QHT       0.129000
     53 H4         -37.5200   -15.9830     5.4150 ha         1 QHT       0.157000
     54 H5         -37.0550   -14.6000     9.6810 h4         1 QHT       0.040100
     55 H1         -39.0170   -21.3800     6.6740 hn         1 QHT       0.419800
@<TRIPOS>BOND
     1     1     5 ar  
     2     1    12 ar  
     3     1    24 1   
     4     2     3 1   
     5     2     4 1   
     6     2    23 1   
     7     2    32 1   
     8     3     4 1   
     9     3    33 1   
    10     3    34 1   
    11     4    35 1   
    12     4    36 1   
    13     5    19 ar  
    14     5    37 1   
    15     6     7 ar  
    16     6    15 ar  
    17     6    31 1   
    18     7     8 1   
    19     7     9 ar  
    20     8    38 1   
    21     8    39 1   
    22     8    40 1   
    23     9    10 1   
    24     9    11 ar  
    25    10    41 1   
    26    10    42 1   
    27    10    43 1   
    28    11    13 ar  
    29    11    44 1   
    30    12    17 ar  
    31    12    45 1   
    32    13    14 1   
    33    13    15 ar  
    34    14    46 1   
    35    14    47 1   
    36    14    48 1   
    37    15    16 1   
    38    16    49 1   
    39    16    50 1   
    40    16    51 1   
    41    17    18 ar  
    42    17    52 1   
    43    18    19 ar  
    44    18    53 1   
    45    19    25 1   
    46    20    21 1   
    47    20    26 2   
    48    20    54 1   
    49    21    22 1   
    50    21    23 2   
    51    22    28 1   
    52    22    29 1   
    53    23    25 1   
    54    24    31 1   
    55    24    55 1   
    56    25    26 1   
    57    27    31 2   
    58    30    31 2   
@<TRIPOS>SUBSTRUCTURE
     1 QHT         1 TEMP              0 ****  ****    0 ROOT
