@<TRIPOS>MOLECULE
QHT
   55    58     1     0     0
SMALL
No Charge or Current Charge


@<TRIPOS>ATOM
      1 C1         -39.2820   -19.4720     5.5410 ca         1 QHT       0.236000
      2 C10        -40.4460   -16.8090     8.7510 cx         1 QHT      -0.037400
      3 C11        -41.4520   -15.6810     8.8260 cx         1 QHT      -0.123900
      4 C12        -41.2880   -16.4520     7.5430 cx         1 QHT      -0.123900
      5 C13        -38.8590   -18.8050     6.7020 ca         1 QHT      -0.143000
      6 C14        -40.9350   -23.2910     5.4960 ca         1 QHT      -0.271500
      7 C15        -39.9700   -24.3520     5.5360 ca         1 QHT       0.030700
      8 C16        -38.5410   -24.1830     4.9900 c3         1 QHT      -0.066800
      9 C17        -40.3190   -25.5970     6.1200 ca         1 QHT      -0.108800
     10 C18        -39.3700   -26.7990     6.1280 c3         1 QHT      -0.044300
     11 C19        -41.5770   -25.7660     6.7070 ca         1 QHT      -0.054000
     12 C2         -39.2320   -18.7990     4.3040 ca         1 QHT      -0.128000
     13 C20        -42.4980   -24.7150     6.7680 ca         1 QHT      -0.108800
     14 C21        -43.8360   -24.9930     7.4590 c3         1 QHT      -0.044300
     15 C22        -42.1790   -23.4570     6.1930 ca         1 QHT       0.030700
     16 C23        -43.1810   -22.3030     6.3700 c3         1 QHT      -0.066800
     17 C3         -38.7680   -17.4740     4.2330 ca         1 QHT      -0.095000
     18 C4         -38.3540   -16.8130     5.4000 ca         1 QHT      -0.108000
     19 C5         -38.4050   -17.4730     6.6420 ca         1 QHT       0.078800
     20 C6         -36.9050   -15.8660     9.2940 cc         1 QHT       0.273900
     21 C7         -38.2320   -15.9280     9.7590 cc         1 QHT      -0.204600
     22 C8         -38.6450   -15.4240    11.0900 c          1 QHT       0.738600
     23 C9         -38.9780   -16.5320     8.7720 cd         1 QHT      -0.105300
     24 N1         -39.7340   -20.7850     5.6560 nu         1 QHT      -0.849100
     25 N2         -38.0000   -16.8090     7.8030 na         1 QHT       0.178000
     26 N3         -36.7160   -16.3930     8.1000 nd         1 QHT      -0.574800
     27 O1         -39.5990   -21.9930     3.4930 o          1 QHT      -0.535500
     28 O2         -39.7990   -15.5630    11.4650 o          1 QHT      -0.722000
     29 O3         -37.7940   -14.9000    11.7930 o          1 QHT      -0.722000
     30 O4         -41.7900   -20.9790     4.2840 o          1 QHT      -0.535500
     31 S1         -40.5740   -21.7480     4.5580 sy         1 QHT       1.100600
     32 H6         -40.7060   -17.7370     9.2560 hc         1 QHT       0.076700
     33 H7         -41.0720   -14.6630     8.8560 hc         1 QHT       0.070950
     34 H8         -42.3540   -15.8480     9.4090 hc         1 QHT       0.070950
     35 H10        -40.8140   -15.9360     6.7120 hc         1 QHT       0.070950
     36 H9         -42.0780   -17.1420     7.2590 hc         1 QHT       0.070950
     37 H11        -38.8890   -19.3160     7.6600 ha         1 QHT       0.129000
     38 H14        -38.1370   -23.1870     5.1990 hc         1 QHT       0.060700
     39 H12        -37.8210   -24.8660     5.4510 hc         1 QHT       0.060700
     40 H13        -38.5060   -24.3580     3.9090 hc         1 QHT       0.060700
     41 H16        -38.5440   -26.6450     6.8330 hc         1 QHT       0.041867
     42 H15        -39.8810   -27.7220     6.4250 hc         1 QHT       0.041867
     43 H17        -38.9440   -26.9800     5.1340 hc         1 QHT       0.041867
     44 H18        -41.8340   -26.7270     7.1480 ha         1 QHT       0.107000
     45 H2         -39.5480   -19.2940     3.3910 ha         1 QHT       0.130000
     46 H20        -44.6810   -24.6720     6.8380 hc         1 QHT       0.041867
     47 H21        -43.9800   -26.0610     7.6590 hc         1 QHT       0.041867
     48 H19        -43.9000   -24.4720     8.4220 hc         1 QHT       0.041867
     49 H22        -43.7940   -22.1670     5.4710 hc         1 QHT       0.060700
     50 H23        -43.8700   -22.4490     7.2070 hc         1 QHT       0.060700
     51 H24        -42.6760   -21.3590     6.6010 hc         1 QHT       0.060700
     52 H3         -38.7310   -16.9610     3.2740 ha         1 QHT       0.111000
     53 H4         -37.9980   -15.7870     5.3450 ha         1 QHT       0.139000
     54 H5         -36.0500   -15.4510     9.8120 h4         1 QHT       0.040100
     55 H1         -39.8730   -21.1630     6.5830 hn         1 QHT       0.475000
@<TRIPOS>BOND
     1     1     5 ar  
     2     1    12 ar  
     3     1    24 1   
     4     2     3 1   
     5     2     4 1   
     6     2    23 1   
     7     2    32 1   
     8     3     4 1   
     9     3    33 1   
    10     3    34 1   
    11     4    35 1   
    12     4    36 1   
    13     5    19 ar  
    14     5    37 1   
    15     6     7 ar  
    16     6    15 ar  
    17     6    31 1   
    18     7     8 1   
    19     7     9 ar  
    20     8    38 1   
    21     8    39 1   
    22     8    40 1   
    23     9    10 1   
    24     9    11 ar  
    25    10    41 1   
    26    10    42 1   
    27    10    43 1   
    28    11    13 ar  
    29    11    44 1   
    30    12    17 ar  
    31    12    45 1   
    32    13    14 1   
    33    13    15 ar  
    34    14    46 1   
    35    14    47 1   
    36    14    48 1   
    37    15    16 1   
    38    16    49 1   
    39    16    50 1   
    40    16    51 1   
    41    17    18 ar  
    42    17    52 1   
    43    18    19 ar  
    44    18    53 1   
    45    19    25 1   
    46    20    21 1   
    47    20    26 2   
    48    20    54 1   
    49    21    22 1   
    50    21    23 2   
    51    22    28 1   
    52    22    29 1   
    53    23    25 1   
    54    24    31 1   
    55    24    55 1   
    56    25    26 1   
    57    27    31 2   
    58    30    31 2   
@<TRIPOS>SUBSTRUCTURE
     1 QHT         1 TEMP              0 ****  ****    0 ROOT
