@<TRIPOS>MOLECULE
QHU
   39    42     1     0     0
SMALL
abcg2


@<TRIPOS>ATOM
      1 N1         -16.6700     4.4470    25.1510 nb         1 QHU      -0.651000
      2 C4         -22.7570     6.5840    27.4920 c6         1 QHU      -0.106400
      3 C5         -21.9710     5.3110    27.8610 c6         1 QHU      -0.084400
      4 C6         -20.4760     5.5500    27.6510 c          1 QHU       0.594100
      5 C7         -18.7050     5.4490    25.9590 ca         1 QHU      -0.078000
      6 C8         -17.9430     4.3610    25.6130 ca         1 QHU       0.310900
      7 C10        -16.8170     6.8420    25.3650 ca         1 QHU      -0.091000
      8 C13        -18.2490     9.1630    25.9480 ca         1 QHU      -0.091000
      9 C15        -18.1600     6.7540    25.8290 ca         1 QHU      -0.001000
     10 C17        -22.0290     3.6330    29.7370 ca         1 QHU      -0.050000
     11 C18        -22.3030     3.2540    31.0420 ca         1 QHU       0.088000
     12 C          -22.8420     4.1920    31.9250 ca         1 QHU       0.164000
     13 CL         -23.2100     3.7710    33.5730 cl         1 QHU      -0.174000
     14 C16        -22.2690     4.9260    29.2870 ca         1 QHU      -0.144300
     15 C2         -22.8040     5.8570    30.1840 ca         1 QHU       0.173100
     16 C1         -23.0920     5.4840    31.4970 ca         1 QHU      -0.134000
     17 C3         -22.6110     7.6230    28.5820 c6         1 QHU       0.158600
     18 O          -23.1010     7.1370    29.8490 os         1 QHU      -0.341100
     19 O1         -19.7510     6.0240    28.5170 o          1 QHU      -0.560100
     20 N          -20.0380     5.2500    26.4020 ns         1 QHU      -0.169000
     21 C14        -18.8650     7.9470    26.1080 ca         1 QHU      -0.089000
     22 C12        -16.9110     9.2500    25.5040 ca         1 QHU      -0.106000
     23 C11        -16.2080     8.1100    25.2140 ca         1 QHU      -0.082000
     24 C9         -16.1370     5.6430    25.0460 ca         1 QHU       0.359900
     25 H1         -22.4040     6.9960    26.5460 hc         1 QHU       0.064700
     26 H2         -23.8110     6.3250    27.3690 hc         1 QHU       0.064700
     27 H3         -22.2870     4.5010    27.2020 hc         1 QHU       0.068700
     28 H4         -18.3600     3.3650    25.7040 h4         1 QHU       0.021100
     29 H5         -18.7970    10.0720    26.1630 ha         1 QHU       0.116000
     30 H6         -21.6190     2.9010    29.0520 ha         1 QHU       0.128000
     31 H7         -23.5080     6.2140    32.1780 ha         1 QHU       0.148000
     32 H8         -21.5660     7.9150    28.7090 h1         1 QHU       0.069700
     33 H9         -23.2040     8.5100    28.3710 h1         1 QHU       0.069700
     34 H10        -20.6630     4.7500    25.7880 hn         1 QHU       0.156000
     35 H11        -19.8900     7.8990    26.4460 ha         1 QHU       0.116000
     36 H12        -16.4480    10.2210    25.3880 ha         1 QHU       0.119000
     37 H13        -15.1850     8.1590    24.8630 ha         1 QHU       0.119000
     38 H14        -15.1130     5.7020    24.6870 h4         1 QHU       0.023100
     39 CL1        -21.9740     1.6170    31.5420 cl         1 QHU      -0.180000
@<TRIPOS>BOND
     1     1     6 ar  
     2     1    24 ar  
     3     2     3 1   
     4     2    17 1   
     5     2    25 1   
     6     2    26 1   
     7     3     4 1   
     8     3    14 1   
     9     3    27 1   
    10     4    19 2   
    11     4    20 1   
    12     5     6 ar  
    13     5     9 ar  
    14     5    20 1   
    15     6    28 1   
    16     7     9 ar  
    17     7    23 ar  
    18     7    24 ar  
    19     8    21 ar  
    20     8    22 ar  
    21     8    29 1   
    22     9    21 ar  
    23    10    11 ar  
    24    10    14 ar  
    25    10    30 1   
    26    11    12 ar  
    27    11    39 1   
    28    12    13 1   
    29    12    16 ar  
    30    14    15 ar  
    31    15    16 ar  
    32    15    18 1   
    33    16    31 1   
    34    17    18 1   
    35    17    32 1   
    36    17    33 1   
    37    20    34 1   
    38    21    35 1   
    39    22    23 ar  
    40    22    36 1   
    41    23    37 1   
    42    24    38 1   
@<TRIPOS>SUBSTRUCTURE
     1 QHU         1 TEMP              0 ****  ****    0 ROOT
