@<TRIPOS>MOLECULE
QHU
   39    42     1     0     0
SMALL
No Charge or Current Charge


@<TRIPOS>ATOM
      1 N1         -16.7900     4.4180    24.8410 nb         1 QHU      -0.651000
      2 C4         -22.9150     6.4840    27.4300 c6         1 QHU      -0.106400
      3 C5         -21.9980     5.3270    27.9020 c6         1 QHU      -0.084400
      4 C6         -20.5010     5.6560    27.6710 c          1 QHU       0.594100
      5 C7         -18.7110     5.5040    25.8740 ca         1 QHU      -0.078000
      6 C8         -18.0370     4.3760    25.3590 ca         1 QHU       0.310900
      7 C10        -16.7570     6.8080    25.2750 ca         1 QHU      -0.091000
      8 C13        -17.9750     9.1850    26.1480 ca         1 QHU      -0.091000
      9 C15        -18.0630     6.7640    25.8130 ca         1 QHU      -0.001000
     10 C17        -21.8540     3.6990    29.8600 ca         1 QHU      -0.050000
     11 C18        -22.1230     3.3360    31.1910 ca         1 QHU       0.088000
     12 C          -22.8340     4.2190    32.0300 ca         1 QHU       0.164000
     13 Cl         -23.1960     3.7930    33.7030 cl         1 QHU      -0.174000
     14 C16        -22.2880     4.9430    29.3610 ca         1 QHU      -0.144300
     15 C2         -22.9920     5.8280    30.2110 ca         1 QHU       0.173100
     16 C1         -23.2690     5.4590    31.5350 ca         1 QHU      -0.134000
     17 C3         -22.9590     7.5830    28.5110 c6         1 QHU       0.158600
     18 O          -23.4530     7.0490    29.7590 os         1 QHU      -0.341100
     19 O1         -19.7900     6.1190    28.5560 o          1 QHU      -0.560100
     20 N          -20.0120     5.3190    26.4180 ns         1 QHU      -0.169000
     21 C14        -18.6730     7.9680    26.2340 ca         1 QHU      -0.089000
     22 C12        -16.6690     9.2160    25.6340 ca         1 QHU      -0.106000
     23 C11        -16.0600     8.0290    25.1930 ca         1 QHU      -0.082000
     24 C9         -16.1640     5.6170    24.8110 ca         1 QHU       0.359900
     25 H1         -22.5680     6.8990    26.4730 hc         1 QHU       0.064700
     26 H2         -23.9340     6.1090    27.2590 hc         1 QHU       0.064700
     27 H3         -22.2400     4.4940    27.2270 hc         1 QHU       0.068700
     28 H4         -18.5110     3.3950    25.3790 h4         1 QHU       0.021100
     29 H5         -18.4500    10.1070    26.4770 ha         1 QHU       0.116000
     30 H6         -21.3110     3.0100    29.2180 ha         1 QHU       0.128000
     31 H7         -23.8200     6.1370    32.1800 ha         1 QHU       0.148000
     32 H8         -21.9510     7.9900    28.6750 h1         1 QHU       0.069700
     33 H9         -23.6100     8.4100    28.1940 h1         1 QHU       0.069700
     34 H10        -20.6750     4.8680    25.8010 hn         1 QHU       0.156000
     35 H11        -19.6880     7.9810    26.6180 ha         1 QHU       0.116000
     36 H12        -16.1320    10.1600    25.5680 ha         1 QHU       0.119000
     37 H13        -15.0530     8.0610    24.7830 ha         1 QHU       0.119000
     38 H14        -15.1600     5.6230    24.3890 h4         1 QHU       0.023100
     39 Cl1        -21.5630     1.7700    31.7810 cl         1 QHU      -0.180000
@<TRIPOS>BOND
     1     1     6 ar  
     2     1    24 ar  
     3     2     3 1   
     4     2    17 1   
     5     2    25 1   
     6     2    26 1   
     7     3     4 1   
     8     3    14 1   
     9     3    27 1   
    10     4    19 2   
    11     4    20 1   
    12     5     6 ar  
    13     5     9 ar  
    14     5    20 1   
    15     6    28 1   
    16     7     9 ar  
    17     7    23 ar  
    18     7    24 ar  
    19     8    21 ar  
    20     8    22 ar  
    21     8    29 1   
    22     9    21 ar  
    23    10    11 ar  
    24    10    14 ar  
    25    10    30 1   
    26    11    12 ar  
    27    11    39 1   
    28    12    13 1   
    29    12    16 ar  
    30    14    15 ar  
    31    15    16 ar  
    32    15    18 1   
    33    16    31 1   
    34    17    18 1   
    35    17    32 1   
    36    17    33 1   
    37    20    34 1   
    38    21    35 1   
    39    22    23 ar  
    40    22    36 1   
    41    23    37 1   
    42    24    38 1   
@<TRIPOS>SUBSTRUCTURE
     1 QHU         1 TEMP              0 ****  ****    0 ROOT
