@<TRIPOS>MOLECULE
QHV
   88    93     1     0     0
SMALL
No Charge or Current Charge


@<TRIPOS>ATOM
      1 N1          19.2890    97.3880   -19.4430 ns         1 QHV      -0.451900
      2 C4          19.3810   100.0610   -17.5100 c3         1 QHV       0.116900
      3 C5          19.9000   101.3110   -16.8060 ca         1 QHV      -0.053300
      4 C6          19.3050   102.5630   -17.0630 ca         1 QHV      -0.097000
      5 C7          19.7870   103.7230   -16.4310 ca         1 QHV      -0.120000
      6 C8          20.8680   103.6400   -15.5380 ca         1 QHV      -0.123000
      7 C10         20.9890   101.2380   -15.9140 ca         1 QHV      -0.097000
      8 C13         22.6690   100.1600   -20.1780 ca         1 QHV      -0.095300
      9 C15         23.4070   101.3110   -18.1570 ca         1 QHV      -0.115500
     10 C20         20.2590    99.5270   -22.9480 ca         1 QHV      -0.130600
     11 C21         20.9510    98.6200   -23.7820 ca         1 QHV      -0.074000
     12 C22         21.1900    98.9320   -25.1320 ca         1 QHV      -0.109500
     13 C24         21.0130   100.4980   -27.1260 cp         1 QHV      -0.028000
     14 C26         20.3600   101.6710   -29.2110 cp         1 QHV      -0.049000
     15 C28         18.6170   102.1020   -31.0620 ca         1 QHV      -0.099000
     16 C36         20.7570   104.8110   -25.8430 ca         1 QHV       0.120000
     17 C35         19.4420   104.7460   -26.3300 ca         1 QHV      -0.106000
     18 C34         19.2100   104.4590   -27.6870 ca         1 QHV      -0.088500
     19 C37         21.8410   104.6090   -26.7120 ca         1 QHV      -0.106000
     20 C38         21.6090   104.3260   -28.0690 ca         1 QHV      -0.088500
     21 C33         20.2910   104.2250   -28.5740 cp         1 QHV      -0.031000
     22 C32         20.0500   103.8750   -30.0140 cp         1 QHV      -0.032000
     23 C31         19.6920   104.7840   -31.0240 ca         1 QHV      -0.102000
     24 C30         18.8570   104.3410   -32.0720 ca         1 QHV      -0.112000
     25 C29         18.3360   103.0230   -32.0940 ca         1 QHV      -0.105000
     26 C27         19.3830   102.5270   -29.9620 cp         1 QHV      -0.017000
     27 C25         20.0900   101.2580   -27.8850 ca         1 QHV      -0.091000
     28 C39         21.5740   101.2570   -29.8060 ca         1 QHV      -0.091000
     29 C40         22.4960   100.4800   -29.0860 ca         1 QHV      -0.114000
     30 C41         22.2220   100.1120   -27.7570 ca         1 QHV      -0.095000
     31 C23         20.7360   100.1490   -25.6960 cp         1 QHV      -0.032000
     32 C42         20.0170   101.0350   -24.8560 ca         1 QHV      -0.109500
     33 C43         19.7730   100.7250   -23.5080 ca         1 QHV      -0.074000
     34 O           18.9050    99.5460   -21.0040 o          1 QHV      -0.573100
     35 N           20.9270    98.4660   -20.7680 n          1 QHV      -0.390400
     36 C12         22.3520    98.8700   -20.9240 c3         1 QHV       0.156300
     37 C19         22.4830   101.4080   -20.8050 ca         1 QHV      -0.085000
     38 C18         22.7480   102.5980   -20.1080 ca         1 QHV      -0.115500
     39 C16         23.2090   102.5570   -18.7800 ca         1 QHV      -0.081300
     40 C14         23.1330   100.1190   -18.8500 ca         1 QHV      -0.085000
     41 C1          20.6230    97.6100   -19.6900 c          1 QHV       0.658100
     42 O3          21.4870    97.0720   -19.0150 o          1 QHV      -0.625100
     43 C2          18.7260    96.6300   -18.2970 c3         1 QHV      -0.049300
     44 C11         17.7720    95.5220   -18.8190 c          1 QHV       0.717000
     45 O2          18.1030    94.3550   -18.6630 o          1 QHV      -0.711500
     46 O1          16.7470    95.8600   -19.3950 o          1 QHV      -0.711500
     47 C3          17.9830    97.5480   -17.2960 c3         1 QHV       0.098600
     48 S           19.1260    98.6510   -16.3250 ss         1 QHV      -0.503000
     49 C9          21.4690   102.3980   -15.2800 ca         1 QHV      -0.120000
     50 H1          18.6460    97.8970   -20.0420 hn         1 QHV       0.332500
     51 H2          20.1060    99.7680   -18.2770 h1         1 QHV       0.068200
     52 H3          18.4290   100.2850   -18.0090 h1         1 QHV       0.068200
     53 H4          18.4700   102.6390   -17.7560 ha         1 QHV       0.121000
     54 H5          19.3230   104.6850   -16.6350 ha         1 QHV       0.101500
     55 H6          21.2410   104.5380   -15.0500 ha         1 QHV       0.099000
     56 H7          21.4680   100.2820   -15.7150 ha         1 QHV       0.121000
     57 H8          23.7650   101.2630   -17.1320 ha         1 QHV       0.106500
     58 H9          23.7900   103.6660   -16.9950 hc         1 QHV       0.037033
     59 H10         24.2880   104.4200   -18.5170 hc         1 QHV       0.037033
     60 H11         22.5920   104.4860   -18.0060 hc         1 QHV       0.037033
     61 H12         21.2970    97.6650   -23.3910 ha         1 QHV       0.130500
     62 H13         21.7230    98.2140   -25.7490 ha         1 QHV       0.113000
     63 H14         18.3010   101.0650   -31.1440 ha         1 QHV       0.123000
     64 H17         22.8580   104.6640   -26.3320 ha         1 QHV       0.129000
     65 H18         22.4530   104.1560   -28.7350 ha         1 QHV       0.123000
     66 H19         20.0030   105.8240   -30.9650 ha         1 QHV       0.113000
     67 H20         18.5910   105.0320   -32.8690 ha         1 QHV       0.112000
     68 H21         17.7260   102.7060   -32.9380 ha         1 QHV       0.115000
     69 H22         19.1480   101.5580   -27.4350 ha         1 QHV       0.120000
     70 H23         21.8010   101.5520   -30.8280 ha         1 QHV       0.116000
     71 H24         23.4310   100.1770   -29.5520 ha         1 QHV       0.113000
     72 H25         22.9640    99.5390   -27.2080 ha         1 QHV       0.118000
     73 H26         19.6590   101.9840   -25.2450 ha         1 QHV       0.113000
     74 H27         19.2220   101.4320   -22.8910 ha         1 QHV       0.130500
     75 H28         23.0190    98.0730   -20.5700 h1         1 QHV       0.061200
     76 H29         22.6100    99.0120   -21.9780 h1         1 QHV       0.061200
     77 H30         22.1300   101.4590   -21.8330 ha         1 QHV       0.114500
     78 H31         22.5940   103.5550   -20.6020 ha         1 QHV       0.106500
     79 H32         23.2780    99.1640   -18.3510 ha         1 QHV       0.114500
     80 H33         19.5360    96.1220   -17.7610 h1         1 QHV       0.081700
     81 H35         17.2340    98.1550   -17.8200 h1         1 QHV       0.078200
     82 H36         17.4470    96.9120   -16.5780 h1         1 QHV       0.078200
     83 H37         22.3100   102.3320   -14.5940 ha         1 QHV       0.101500
     84 C17         23.4860   103.8520   -18.0320 c3         1 QHV      -0.042800
     85 C           19.9790    99.2190   -21.4930 c          1 QHV       0.627700
     86 H15         18.6040   104.9080   -25.6570 ha         1 QHV       0.129000
     87 Cl          21.0460   105.1400   -24.1400 cl         1 QHV      -0.210000
     88 H16         18.1890   104.3990   -28.0570 ha         1 QHV       0.123000
@<TRIPOS>BOND
     1     1    41 1   
     2     1    43 1   
     3     1    50 1   
     4     2     3 1   
     5     2    48 1   
     6     2    51 1   
     7     2    52 1   
     8     3     4 ar  
     9     3     7 ar  
    10     4     5 ar  
    11     4    53 1   
    12     5     6 ar  
    13     5    54 1   
    14     6    49 ar  
    15     6    55 1   
    16     7    49 ar  
    17     7    56 1   
    18     8    36 1   
    19     8    37 ar  
    20     8    40 ar  
    21     9    39 ar  
    22     9    40 ar  
    23     9    57 1   
    24    10    11 ar  
    25    10    33 ar  
    26    10    85 1   
    27    11    12 ar  
    28    11    61 1   
    29    12    31 ar  
    30    12    62 1   
    31    13    27 ar  
    32    13    30 ar  
    33    13    31 1   
    34    14    26 1   
    35    14    27 ar  
    36    14    28 ar  
    37    15    25 ar  
    38    15    26 ar  
    39    15    63 1   
    40    16    17 ar  
    41    16    19 ar  
    42    16    87 1   
    43    17    18 ar  
    44    17    86 1   
    45    18    21 ar  
    46    18    88 1   
    47    19    20 ar  
    48    19    64 1   
    49    20    21 ar  
    50    20    65 1   
    51    21    22 1   
    52    22    23 ar  
    53    22    26 ar  
    54    23    24 ar  
    55    23    66 1   
    56    24    25 ar  
    57    24    67 1   
    58    25    68 1   
    59    27    69 1   
    60    28    29 ar  
    61    28    70 1   
    62    29    30 ar  
    63    29    71 1   
    64    30    72 1   
    65    31    32 ar  
    66    32    33 ar  
    67    32    73 1   
    68    33    74 1   
    69    34    85 2   
    70    35    36 1   
    71    35    41 1   
    72    35    85 1   
    73    36    75 1   
    74    36    76 1   
    75    37    38 ar  
    76    37    77 1   
    77    38    39 ar  
    78    38    78 1   
    79    39    84 1   
    80    40    79 1   
    81    41    42 2   
    82    43    44 1   
    83    43    47 1   
    84    43    80 1   
    85    44    45 1   
    86    44    46 1   
    87    47    48 1   
    88    47    81 1   
    89    47    82 1   
    90    49    83 1   
    91    58    84 1   
    92    59    84 1   
    93    60    84 1   
@<TRIPOS>SUBSTRUCTURE
     1 QHV         1 TEMP              0 ****  ****    0 ROOT
