@<TRIPOS>MOLECULE
QHV
   88    93     1     0     0
SMALL
bcc


@<TRIPOS>ATOM
      1 N1          19.5830    97.6310   -19.0550 ns         1 QHV      -0.518900
      2 C4          18.5780   100.0660   -17.2680 c3         1 QHV       0.069000
      3 C5          18.7080   101.3160   -16.4520 ca         1 QHV      -0.053300
      4 C6          17.5820   102.0350   -16.0610 ca         1 QHV      -0.115000
      5 C7          17.7090   103.1840   -15.2920 ca         1 QHV      -0.138000
      6 C8          18.9650   103.6230   -14.8950 ca         1 QHV      -0.141000
      7 C10         19.9640   101.7590   -16.0430 ca         1 QHV      -0.115000
      8 C13         22.7570    99.9560   -19.8610 ca         1 QHV      -0.095300
      9 C15         24.2720   100.6910   -18.1310 ca         1 QHV      -0.133500
     10 C20         20.3450    99.3480   -22.9440 ca         1 QHV      -0.130600
     11 C21         21.0890    98.5690   -23.8250 ca         1 QHV      -0.092000
     12 C22         21.3180    99.0070   -25.1180 ca         1 QHV      -0.127500
     13 C24         21.0960   100.7150   -26.9290 cp         1 QHV      -0.028000
     14 C26         20.3740   101.9320   -28.9070 cp         1 QHV      -0.049000
     15 C28         18.0540   102.1590   -29.7450 ca         1 QHV      -0.117000
     16 C36         23.3380   105.9470   -29.7330 ca         1 QHV       0.028400
     17 C35         22.6580   105.5050   -28.6070 ca         1 QHV      -0.124000
     18 C34         21.4450   104.8550   -28.7630 ca         1 QHV      -0.106500
     19 C37         22.8160   105.7560   -31.0010 ca         1 QHV      -0.124000
     20 C38         21.5970   105.1060   -31.1390 ca         1 QHV      -0.106500
     21 C33         20.8990   104.6410   -30.0280 cp         1 QHV      -0.031000
     22 C32         19.5930   103.9620   -30.1870 cp         1 QHV      -0.032000
     23 C31         18.5800   104.6100   -30.8950 ca         1 QHV      -0.120000
     24 C30         17.3190   104.0490   -31.0240 ca         1 QHV      -0.130000
     25 C29         17.0520   102.8200   -30.4380 ca         1 QHV      -0.123000
     26 C27         19.3300   102.7070   -29.6160 cp         1 QHV      -0.017000
     27 C25         20.1370   101.4560   -27.6210 ca         1 QHV      -0.109000
     28 C39         21.5920   101.6420   -29.5200 ca         1 QHV      -0.109000
     29 C40         22.5500   100.9010   -28.8470 ca         1 QHV      -0.132000
     30 C41         22.3100   100.4450   -27.5590 ca         1 QHV      -0.113000
     31 C23         20.8320   100.2410   -25.5560 cp         1 QHV      -0.032000
     32 C42         20.0900   101.0130   -24.6610 ca         1 QHV      -0.127500
     33 C43         19.8330   100.5660   -23.3770 ca         1 QHV      -0.092000
     34 O           18.7910    98.7540   -21.3090 o          1 QHV      -0.573100
     35 N           20.9920    98.4870   -20.7390 n          1 QHV      -0.524400
     36 C12         22.3630    98.9720   -20.9310 c3         1 QHV       0.156300
     37 C19         21.9990   101.1040   -19.6420 ca         1 QHV      -0.103000
     38 C18         22.3710   102.0260   -18.6770 ca         1 QHV      -0.133500
     39 C16         23.5110   101.8340   -17.8990 ca         1 QHV      -0.081300
     40 C14         23.8970    99.7630   -19.0930 ca         1 QHV      -0.103000
     41 C1          20.8170    97.7020   -19.5560 c          1 QHV       0.792100
     42 O3          21.8000    97.1830   -19.0590 o          1 QHV      -0.625100
     43 C2          19.2260    96.6780   -18.0340 c3         1 QHV      -0.049300
     44 C11         18.8440    95.2850   -18.6300 c          1 QHV       0.927600
     45 O2          18.4050    94.4650   -17.8030 o          1 QHV      -0.816800
     46 O1          19.0360    95.1200   -19.8450 o          1 QHV      -0.816800
     47 C3          18.1050    97.2430   -17.1730 c3         1 QHV       0.050700
     48 S           18.5660    98.6480   -16.1180 ss         1 QHV      -0.407200
     49 C9          20.0940   102.9060   -15.2720 ca         1 QHV      -0.138000
     50 H1          18.8380    98.0060   -19.6290 hn         1 QHV       0.332500
     51 H2          19.4070    99.9710   -17.9660 h1         1 QHV       0.068200
     52 H3          17.6470   100.0640   -17.8380 h1         1 QHV       0.068200
     53 H4          16.5990   101.6970   -16.3670 ha         1 QHV       0.139000
     54 H5          16.8240   103.7380   -15.0020 ha         1 QHV       0.119500
     55 H6          19.0650   104.5190   -14.2960 ha         1 QHV       0.117000
     56 H7          20.8480   101.2050   -16.3380 ha         1 QHV       0.139000
     57 H8          25.1680   100.5180   -17.5450 ha         1 QHV       0.124500
     58 H9          23.3790   102.5710   -15.8860 hc         1 QHV       0.037033
     59 H10         24.9550   102.8050   -16.6270 hc         1 QHV       0.037033
     60 H11         23.5950   103.8300   -17.0910 hc         1 QHV       0.037033
     61 H12         21.4810    97.6090   -23.5100 ha         1 QHV       0.148500
     62 H13         21.8710    98.3710   -25.7970 ha         1 QHV       0.131000
     63 H14         17.8520   101.1870   -29.3120 ha         1 QHV       0.141000
     64 H17         23.3500   106.1030   -31.8760 ha         1 QHV       0.147000
     65 H18         21.1970   104.9450   -32.1330 ha         1 QHV       0.141000
     66 H19         18.7800   105.5820   -31.3280 ha         1 QHV       0.131000
     67 H20         16.5480   104.5740   -31.5720 ha         1 QHV       0.130000
     68 H21         16.0710   102.3720   -30.5270 ha         1 QHV       0.133000
     69 H22         19.1830   101.6710   -27.1550 ha         1 QHV       0.138000
     70 H23         21.7880   101.9910   -30.5260 ha         1 QHV       0.134000
     71 H24         23.4960   100.6820   -29.3260 ha         1 QHV       0.131000
     72 H25         23.0830    99.8930   -27.0390 ha         1 QHV       0.136000
     73 H26         19.7180   101.9840   -24.9610 ha         1 QHV       0.131000
     74 H27         19.2500   101.1810   -22.7030 ha         1 QHV       0.148500
     75 H28         23.0580    98.1360   -20.9670 h1         1 QHV       0.061200
     76 H29         22.4160    99.4650   -21.8980 h1         1 QHV       0.061200
     77 H30         21.1080   101.2900   -20.2320 ha         1 QHV       0.132500
     78 H31         21.7640   102.9120   -18.5270 ha         1 QHV       0.124500
     79 H32         24.5050    98.8790   -19.2470 ha         1 QHV       0.132500
     80 H33         20.0940    96.5240   -17.3880 h1         1 QHV       0.081700
     81 H35         17.2380    97.5250   -17.7780 h1         1 QHV       0.078200
     82 H36         17.7730    96.4710   -16.4810 h1         1 QHV       0.078200
     83 H37         21.0770   103.2420   -14.9690 ha         1 QHV       0.119500
     84 C17         23.8840   102.8130   -16.8250 c3         1 QHV      -0.042800
     85 C           19.9760    98.8470   -21.5870 c          1 QHV       0.694700
     86 H15         23.0650   105.6690   -27.6190 ha         1 QHV       0.147000
     87 CL          24.8610   106.7520   -29.5460 cl         1 QHV      -0.118400
     88 H16         20.9150   104.5190   -27.8810 ha         1 QHV       0.141000
@<TRIPOS>BOND
     1     1    41 1   
     2     1    43 1   
     3     1    50 1   
     4     2     3 1   
     5     2    48 1   
     6     2    51 1   
     7     2    52 1   
     8     3     4 ar  
     9     3     7 ar  
    10     4     5 ar  
    11     4    53 1   
    12     5     6 ar  
    13     5    54 1   
    14     6    49 ar  
    15     6    55 1   
    16     7    49 ar  
    17     7    56 1   
    18     8    36 1   
    19     8    37 ar  
    20     8    40 ar  
    21     9    39 ar  
    22     9    40 ar  
    23     9    57 1   
    24    10    11 ar  
    25    10    33 ar  
    26    10    85 1   
    27    11    12 ar  
    28    11    61 1   
    29    12    31 ar  
    30    12    62 1   
    31    13    27 ar  
    32    13    30 ar  
    33    13    31 1   
    34    14    26 1   
    35    14    27 ar  
    36    14    28 ar  
    37    15    25 ar  
    38    15    26 ar  
    39    15    63 1   
    40    16    17 ar  
    41    16    19 ar  
    42    16    87 1   
    43    17    18 ar  
    44    17    86 1   
    45    18    21 ar  
    46    18    88 1   
    47    19    20 ar  
    48    19    64 1   
    49    20    21 ar  
    50    20    65 1   
    51    21    22 1   
    52    22    23 ar  
    53    22    26 ar  
    54    23    24 ar  
    55    23    66 1   
    56    24    25 ar  
    57    24    67 1   
    58    25    68 1   
    59    27    69 1   
    60    28    29 ar  
    61    28    70 1   
    62    29    30 ar  
    63    29    71 1   
    64    30    72 1   
    65    31    32 ar  
    66    32    33 ar  
    67    32    73 1   
    68    33    74 1   
    69    34    85 2   
    70    35    36 1   
    71    35    41 1   
    72    35    85 1   
    73    36    75 1   
    74    36    76 1   
    75    37    38 ar  
    76    37    77 1   
    77    38    39 ar  
    78    38    78 1   
    79    39    84 1   
    80    40    79 1   
    81    41    42 2   
    82    43    44 1   
    83    43    47 1   
    84    43    80 1   
    85    44    45 1   
    86    44    46 1   
    87    47    48 1   
    88    47    81 1   
    89    47    82 1   
    90    49    83 1   
    91    58    84 1   
    92    59    84 1   
    93    60    84 1   
@<TRIPOS>SUBSTRUCTURE
     1 QHV         1 TEMP              0 ****  ****    0 ROOT
