@<TRIPOS>MOLECULE
QHW
   60    63     1     0     0
SMALL
abcg2


@<TRIPOS>ATOM
      1 C1         -38.6400   -24.6380     3.3560 c3         1 QHW      -0.057300
      2 C10        -40.1900   -22.9970     4.6280 ca         1 QHW      -0.221500
      3 C11        -38.6480   -19.3660     4.6280 ca         1 QHW       0.311000
      4 C12        -38.6340   -18.6200     3.4530 ca         1 QHW      -0.155000
      5 C13        -38.5760   -17.2360     3.5210 ca         1 QHW      -0.112000
      6 C14        -38.5160   -16.5840     4.7430 ca         1 QHW      -0.127000
      7 C15        -38.5150   -17.3380     5.9100 ca         1 QHW       0.046800
      8 C16        -37.6230   -15.3680     8.5870 cc         1 QHW       0.259900
      9 C17        -38.6540   -16.0630     9.2490 cc         1 QHW      -0.224600
     10 C18        -39.0370   -15.8980    10.6940 c          1 QHW       0.741600
     11 C19        -39.1690   -16.9090     8.2820 cd         1 QHW      -0.082300
     12 C2         -39.7210   -24.2940     4.3480 ca         1 QHW       0.061200
     13 C20        -40.3150   -17.8380     8.3010 cx         1 QHW      -0.024400
     14 C21        -41.4010   -17.7000     7.2710 cx         1 QHW      -0.131400
     15 C22        -41.6660   -17.3350     8.6950 cx         1 QHW      -0.131400
     16 C23        -38.5860   -18.7210     5.8580 ca         1 QHW      -0.103000
     17 C24        -37.5400   -21.5260     5.2020 c3         1 QHW       0.067800
     18 C25        -37.7860   -22.1770     6.5850 c          1 QHW       0.714000
     19 C3         -40.3000   -25.3580     5.0550 ca         1 QHW      -0.113300
     20 C4         -39.9060   -26.7900     4.8110 c3         1 QHW      -0.035300
     21 C5         -41.2680   -25.0930     6.0100 ca         1 QHW      -0.058000
     22 C6         -41.6800   -23.8090     6.3290 ca         1 QHW      -0.113300
     23 C7         -42.7120   -23.6190     7.4030 c3         1 QHW      -0.035300
     24 C8         -41.1280   -22.7240     5.6410 ca         1 QHW       0.061200
     25 C9         -41.5950   -21.3540     6.0490 c3         1 QHW      -0.057300
     26 N1         -38.6560   -20.7790     4.6220 nh         1 QHW      -0.772300
     27 N2         -38.4280   -16.6880     7.1600 na         1 QHW       0.193000
     28 N3         -37.4900   -15.7480     7.3350 nd         1 QHW      -0.582800
     29 O1         -38.9750   -22.0620     2.4340 o          1 QHW      -0.581500
     30 O2         -39.8400   -16.7210    11.1750 o          1 QHW      -0.735000
     31 O3         -38.4890   -14.9450    11.2870 o          1 QHW      -0.735000
     32 O4         -37.1050   -23.1950     6.8030 o          1 QHW      -0.716500
     33 O5         -38.5710   -21.6050     7.3610 o          1 QHW      -0.716500
     34 O6         -40.8440   -20.7590     3.3670 o          1 QHW      -0.581500
     35 H1         -38.2220   -25.6120     3.5910 hc         1 QHW       0.054533
     36 H2         -39.0250   -24.6900     2.3370 hc         1 QHW       0.054533
     37 H3         -37.8140   -23.9350     3.3550 hc         1 QHW       0.054533
     38 H14        -38.6390   -19.1080     2.4880 ha         1 QHW       0.107000
     39 H15        -38.5660   -16.6570     2.6060 ha         1 QHW       0.091000
     40 H16        -38.4650   -15.5050     4.7900 ha         1 QHW       0.119000
     41 H17        -36.9710   -14.6100     8.9930 h4         1 QHW       0.027100
     42 H19        -40.0840   -18.8530     8.6100 hc         1 QHW       0.110700
     43 H21        -41.3120   -16.8970     6.5500 hc         1 QHW       0.063950
     44 H20        -41.8360   -18.6070     6.8720 hc         1 QHW       0.063950
     45 H23        -41.7590   -16.2860     8.9410 hc         1 QHW       0.063950
     46 H22        -42.2870   -17.9890     9.2910 hc         1 QHW       0.063950
     47 H24        -38.5760   -19.3210     6.7590 ha         1 QHW       0.189000
     48 H25        -37.1820   -22.2740     4.4920 h1         1 QHW       0.035700
     49 H26        -36.7110   -20.8220     5.3080 h1         1 QHW       0.035700
     50 H6         -38.8740   -26.9860     5.1080 hc         1 QHW       0.031200
     51 H4         -40.5410   -27.4610     5.3880 hc         1 QHW       0.031200
     52 H5         -39.9980   -27.0710     3.7620 hc         1 QHW       0.031200
     53 H7         -41.7150   -25.9270     6.5400 ha         1 QHW       0.088000
     54 H8         -43.5580   -23.0220     7.0590 hc         1 QHW       0.031200
     55 H9         -43.1000   -24.5800     7.7370 hc         1 QHW       0.031200
     56 H10        -42.3000   -23.1110     8.2770 hc         1 QHW       0.031200
     57 H11        -42.5400   -21.1010     5.5640 hc         1 QHW       0.054533
     58 H12        -41.7710   -21.3320     7.1230 hc         1 QHW       0.054533
     59 H13        -40.8890   -20.5620     5.8380 hc         1 QHW       0.054533
     60 S1         -39.6860   -21.6030     3.6190 sy         1 QHW       1.174600
@<TRIPOS>BOND
     1     1    12 1   
     2     1    35 1   
     3     1    36 1   
     4     1    37 1   
     5     2    12 ar  
     6     2    24 ar  
     7     2    60 1   
     8     3     4 ar  
     9     3    16 ar  
    10     3    26 1   
    11     4     5 ar  
    12     4    38 1   
    13     5     6 ar  
    14     5    39 1   
    15     6     7 ar  
    16     6    40 1   
    17     7    16 ar  
    18     7    27 1   
    19     8     9 1   
    20     8    28 2   
    21     8    41 1   
    22     9    10 1   
    23     9    11 2   
    24    10    30 1   
    25    10    31 1   
    26    11    13 1   
    27    11    27 1   
    28    12    19 ar  
    29    13    14 1   
    30    13    15 1   
    31    13    42 1   
    32    14    15 1   
    33    14    43 1   
    34    14    44 1   
    35    15    45 1   
    36    15    46 1   
    37    16    47 1   
    38    17    18 1   
    39    17    26 1   
    40    17    48 1   
    41    17    49 1   
    42    18    32 1   
    43    18    33 1   
    44    19    20 1   
    45    19    21 ar  
    46    20    50 1   
    47    20    51 1   
    48    20    52 1   
    49    21    22 ar  
    50    21    53 1   
    51    22    23 1   
    52    22    24 ar  
    53    23    54 1   
    54    23    55 1   
    55    23    56 1   
    56    24    25 1   
    57    25    57 1   
    58    25    58 1   
    59    25    59 1   
    60    26    60 1   
    61    27    28 1   
    62    29    60 2   
    63    34    60 2   
@<TRIPOS>SUBSTRUCTURE
     1 QHW         1 TEMP              0 ****  ****    0 ROOT
