@<TRIPOS>MOLECULE
QHW
   60    63     1     0     0
SMALL
No Charge or Current Charge


@<TRIPOS>ATOM
      1 C1         -39.0490   -24.4890     2.9820 c3         1 QHW      -0.057300
      2 C10        -40.2700   -22.9870     4.7330 ca         1 QHW      -0.221500
      3 C11        -38.5070   -19.3700     4.7590 ca         1 QHW       0.311000
      4 C12        -38.4850   -18.6140     3.5690 ca         1 QHW      -0.155000
      5 C13        -38.3680   -17.2140     3.6150 ca         1 QHW      -0.112000
      6 C14        -38.2760   -16.5600     4.8530 ca         1 QHW      -0.127000
      7 C15        -38.2900   -17.3030     6.0490 ca         1 QHW       0.046800
      8 C16        -37.6230   -15.5390     8.9300 cc         1 QHW       0.259900
      9 C17        -38.8930   -16.0550     9.2450 cc         1 QHW      -0.224600
     10 C18        -39.5630   -15.8230    10.5460 c          1 QHW       0.741600
     11 C19        -39.3170   -16.7790     8.1540 cd         1 QHW      -0.082300
     12 C2         -39.8970   -24.2900     4.2510 ca         1 QHW       0.061200
     13 C20        -40.6110   -17.5070     7.9660 cx         1 QHW      -0.024400
     14 C21        -41.4050   -17.3750     6.6820 cx         1 QHW      -0.131400
     15 C22        -41.9270   -16.7590     7.9530 cx         1 QHW      -0.131400
     16 C23        -38.3820   -18.7060     5.9890 ca         1 QHW      -0.103000
     17 C24        -37.4900   -21.6340     5.1990 c3         1 QHW       0.067800
     18 C25        -37.6260   -22.4590     6.5290 c          1 QHW       0.714000
     19 C3         -40.3240   -25.4460     4.9610 ca         1 QHW      -0.113300
     20 C4         -40.0080   -26.8710     4.4980 c3         1 QHW      -0.035300
     21 C5         -41.0800   -25.3120     6.1290 ca         1 QHW      -0.058000
     22 C6         -41.4220   -24.0560     6.6370 ca         1 QHW      -0.113300
     23 C7         -42.2600   -24.0210     7.9180 c3         1 QHW      -0.035300
     24 C8         -41.0050   -22.8790     5.9630 ca         1 QHW       0.061200
     25 C9         -41.3810   -21.5220     6.5930 c3         1 QHW      -0.057300
     26 N1         -38.6340   -20.7700     4.7580 nh         1 QHW      -0.772300
     27 N2         -38.2220   -16.6500     7.2820 na         1 QHW       0.193000
     28 N3         -37.1710   -15.8770     7.7380 nd         1 QHW      -0.582800
     29 O1         -39.2740   -21.7310     2.4940 o          1 QHW      -0.581500
     30 O2         -40.6380   -16.3510    10.7820 o          1 QHW      -0.735000
     31 O3         -38.9940   -15.1180    11.3650 o          1 QHW      -0.735000
     32 O4         -37.3420   -23.6500     6.5000 o          1 QHW      -0.716500
     33 O5         -37.9250   -21.8700     7.5610 o          1 QHW      -0.716500
     34 O6         -41.0180   -20.5270     3.8860 o          1 QHW      -0.581500
     35 H1         -38.6900   -25.5110     2.8350 hc         1 QHW       0.054533
     36 H2         -39.6210   -24.2350     2.0820 hc         1 QHW       0.054533
     37 H3         -38.1390   -23.8830     3.0090 hc         1 QHW       0.054533
     38 H14        -38.5510   -19.1070     2.6040 ha         1 QHW       0.107000
     39 H15        -38.3530   -16.6390     2.6920 ha         1 QHW       0.091000
     40 H16        -38.1980   -15.4750     4.8880 ha         1 QHW       0.119000
     41 H17        -36.9950   -14.9200     9.5570 h4         1 QHW       0.027100
     42 H19        -40.6090   -18.4920     8.4290 hc         1 QHW       0.110700
     43 H21        -41.0430   -16.6960     5.9140 hc         1 QHW       0.063950
     44 H20        -41.9020   -18.2640     6.3040 hc         1 QHW       0.063950
     45 H23        -41.8950   -15.6760     8.0390 hc         1 QHW       0.063950
     46 H22        -42.7790   -17.2310     8.4340 hc         1 QHW       0.063950
     47 H24        -38.3890   -19.2880     6.9050 ha         1 QHW       0.189000
     48 H25        -37.2370   -22.3370     4.3960 h1         1 QHW       0.035700
     49 H26        -36.6020   -21.0010     5.3270 h1         1 QHW       0.035700
     50 H6         -38.9320   -27.0740     4.5460 hc         1 QHW       0.031200
     51 H4         -40.5030   -27.6260     5.1210 hc         1 QHW       0.031200
     52 H5         -40.3460   -27.0410     3.4690 hc         1 QHW       0.031200
     53 H7         -41.4060   -26.2050     6.6580 ha         1 QHW       0.088000
     54 H8         -43.1360   -23.3700     7.8060 hc         1 QHW       0.031200
     55 H9         -42.6380   -25.0140     8.1890 hc         1 QHW       0.031200
     56 H10        -41.6690   -23.6590     8.7680 hc         1 QHW       0.031200
     57 H11        -42.3090   -21.1310     6.1600 hc         1 QHW       0.054533
     58 H12        -41.5280   -21.5780     7.6750 hc         1 QHW       0.054533
     59 H13        -40.6020   -20.7650     6.4760 hc         1 QHW       0.054533
     60 S1         -39.8770   -21.4460     3.7990 sy         1 QHW       1.174600
@<TRIPOS>BOND
     1     1    12 1   
     2     1    35 1   
     3     1    36 1   
     4     1    37 1   
     5     2    12 ar  
     6     2    24 ar  
     7     2    60 1   
     8     3     4 ar  
     9     3    16 ar  
    10     3    26 1   
    11     4     5 ar  
    12     4    38 1   
    13     5     6 ar  
    14     5    39 1   
    15     6     7 ar  
    16     6    40 1   
    17     7    16 ar  
    18     7    27 1   
    19     8     9 1   
    20     8    28 2   
    21     8    41 1   
    22     9    10 1   
    23     9    11 2   
    24    10    30 1   
    25    10    31 1   
    26    11    13 1   
    27    11    27 1   
    28    12    19 ar  
    29    13    14 1   
    30    13    15 1   
    31    13    42 1   
    32    14    15 1   
    33    14    43 1   
    34    14    44 1   
    35    15    45 1   
    36    15    46 1   
    37    16    47 1   
    38    17    18 1   
    39    17    26 1   
    40    17    48 1   
    41    17    49 1   
    42    18    32 1   
    43    18    33 1   
    44    19    20 1   
    45    19    21 ar  
    46    20    50 1   
    47    20    51 1   
    48    20    52 1   
    49    21    22 ar  
    50    21    53 1   
    51    22    23 1   
    52    22    24 ar  
    53    23    54 1   
    54    23    55 1   
    55    23    56 1   
    56    24    25 1   
    57    25    57 1   
    58    25    58 1   
    59    25    59 1   
    60    26    60 1   
    61    27    28 1   
    62    29    60 2   
    63    34    60 2   
@<TRIPOS>SUBSTRUCTURE
     1 QHW         1 TEMP              0 ****  ****    0 ROOT
