@<TRIPOS>MOLECULE
QHX
   17    17     1     0     0
SMALL
No Charge or Current Charge


@<TRIPOS>ATOM
      1 C02         29.3850     5.4940     9.5140 ca         1 QHX       0.188500
      2 C03         30.5640     4.7790     9.7570 ca         1 QHX      -0.168000
      3 C04         30.9090     3.7170     8.9120 ca         1 QHX       0.188500
      4 C06         30.0850     3.3650     7.8290 ca         1 QHX      -0.127000
      5 C07         28.8860     4.0790     7.5750 ca         1 QHX      -0.095600
      6 C08         27.9640     3.7370     6.4170 c          1 QHX       0.579700
      7 C12         28.5530     5.1520     8.4360 ca         1 QHX      -0.127000
      8 F01         29.0460     6.5200    10.3240 f          1 QHX      -0.168000
      9 F05         32.0470     3.0270     9.1390 f          1 QHX      -0.168000
     10 N09         28.2920     2.6330     5.6410 ns         1 QHX      -0.345400
     11 O10         27.3730     2.1550     4.6300 oh         1 QHX      -0.447100
     12 O11         26.9620     4.3930     6.1590 o          1 QHX      -0.596100
     13 H1          31.2050     5.0460    10.5910 ha         1 QHX       0.157000
     14 H2          30.4000     2.5380     7.1980 ha         1 QHX       0.152500
     15 H3          27.6440     5.7270     8.2740 ha         1 QHX       0.152500
     16 H4          29.0090     1.9800     5.9480 hn         1 QHX       0.349500
     17 H5          26.5530     2.6720     4.8280 ho         1 QHX       0.475000
@<TRIPOS>BOND
     1     1     2 ar  
     2     1     7 ar  
     3     1     8 1   
     4     2     3 ar  
     5     2    13 1   
     6     3     4 ar  
     7     3     9 1   
     8     4     5 ar  
     9     4    14 1   
    10     5     6 1   
    11     5     7 ar  
    12     6    10 1   
    13     6    12 2   
    14     7    15 1   
    15    10    11 1   
    16    10    16 1   
    17    11    17 1   
@<TRIPOS>SUBSTRUCTURE
     1 QHX         1 TEMP              0 ****  ****    0 ROOT
