@<TRIPOS>MOLECULE
QHX
   17    17     1     0     0
SMALL
abcg2


@<TRIPOS>ATOM
      1 C02         29.3180     5.3730     9.5020 ca         1 QHX       0.188500
      2 C03         30.5380     4.7620     9.7380 ca         1 QHX      -0.168000
      3 C04         30.9390     3.8050     8.8220 ca         1 QHX       0.188500
      4 C06         30.1850     3.4510     7.7200 ca         1 QHX      -0.127000
      5 C07         28.9590     4.0890     7.5260 ca         1 QHX      -0.095600
      6 C08         28.0730     3.7590     6.3750 c          1 QHX       0.579700
      7 C12         28.5200     5.0670     8.4180 ca         1 QHX      -0.127000
      8 F01         28.8910     6.3060    10.3800 f          1 QHX      -0.168000
      9 F05         32.1270     3.1950     9.0150 f          1 QHX      -0.168000
     10 N09         28.2040     2.5220     5.8570 ns         1 QHX      -0.345400
     11 O10         27.3010     2.1540     4.8640 oh         1 QHX      -0.447100
     12 O11         27.2610     4.5520     5.8910 o          1 QHX      -0.596100
     13 H1          31.1490     5.0220    10.5900 ha         1 QHX       0.157000
     14 H2          30.5660     2.7120     7.0290 ha         1 QHX       0.152500
     15 H3          27.5750     5.5690     8.2710 ha         1 QHX       0.152500
     16 H4          28.5340     1.7270     6.3860 hn         1 QHX       0.349500
     17 H5          26.7360     2.9510     4.7890 ho         1 QHX       0.475000
@<TRIPOS>BOND
     1     1     2 ar  
     2     1     7 ar  
     3     1     8 1   
     4     2     3 ar  
     5     2    13 1   
     6     3     4 ar  
     7     3     9 1   
     8     4     5 ar  
     9     4    14 1   
    10     5     6 1   
    11     5     7 ar  
    12     6    10 1   
    13     6    12 2   
    14     7    15 1   
    15    10    11 1   
    16    10    16 1   
    17    11    17 1   
@<TRIPOS>SUBSTRUCTURE
     1 QHX         1 TEMP              0 ****  ****    0 ROOT
