@<TRIPOS>MOLECULE
QHY
   57    60     1     0     0
SMALL
abcg2


@<TRIPOS>ATOM
      1 C4          82.1700    11.9580    25.3920 ca         1 QHY      -0.094000
      2 C5          82.6100    10.8630    24.6740 ca         1 QHY      -0.133000
      3 C6          83.7290    10.9840    23.8540 ca         1 QHY      -0.124000
      4 N1          87.5690    12.3420    20.9560 nh         1 QHY      -0.781300
      5 C7          84.4310    12.1780    23.7530 ca         1 QHY       0.238000
      6 C8          86.3260    11.1160    22.6600 c6         1 QHY       0.169800
      7 N2          88.9540    11.0020    19.6920 nb         1 QHY      -0.348000
      8 C9          87.6960    11.4730    22.1090 c6         1 QHY       0.228300
      9 C10         86.7700    13.5260    21.1970 c6         1 QHY       0.228300
     10 C11         85.4170    13.1380    21.7630 c6         1 QHY       0.169800
     11 C12         88.2300    12.1320    19.8030 ca         1 QHY       0.439900
     12 N3          89.5320    11.6990    17.5080 nb         1 QHY      -0.314000
     13 C13         89.5590    10.8680    18.5290 ca         1 QHY       0.197900
     14 C14         88.7900    12.8060    17.7160 ca         1 QHY       0.439900
     15 C15         87.9080    14.9110    16.8180 c6         1 QHY       0.211300
     16 N4          88.1260    13.0480    18.8460 nb         1 QHY      -0.363000
     17 N           85.5850    12.3240    22.9600 nh         1 QHY      -0.766400
     18 C           85.3330    16.6560    24.8260 c3         1 QHY      -0.094100
     19 C1          84.3390    15.5620    25.1360 c3         1 QHY       0.163600
     20 C16         86.7990    14.8700    15.7760 c6         1 QHY      -0.074400
     21 C17         87.3570    14.6670    14.3690 c6         1 QHY      -0.192700
     22 C18         88.2710    13.4440    14.3470 c6         1 QHY      -0.074400
     23 C19         89.3380    13.5210    15.4320 c6         1 QHY       0.211300
     24 C2          83.9850    13.2840    24.5110 ca         1 QHY       0.139100
     25 C20         86.2580    14.6340    13.2800 c          1 QHY       0.724000
     26 C3          82.8540    13.1680    25.3100 ca         1 QHY      -0.195000
     27 N5          88.7340    13.7200    16.7370 nh         1 QHY      -0.741300
     28 O1          85.2210    15.2910    13.5080 o          1 QHY      -0.733000
     29 O2          86.5050    13.9820    12.2460 o          1 QHY      -0.733000
     30 H1          81.2970    11.8850    26.0280 ha         1 QHY       0.106000
     31 H2          82.0870     9.9170    24.7340 ha         1 QHY       0.110000
     32 H3          84.0540    10.1240    23.2830 ha         1 QHY       0.117000
     33 H4          85.8080    10.4720    21.9310 h1         1 QHY       0.044450
     34 H5          86.4600    10.5350    23.5750 h1         1 QHY       0.044450
     35 H6          88.2290    10.5710    21.8270 h1         1 QHY       0.066200
     36 H7          88.2780    11.9840    22.8850 h1         1 QHY       0.066200
     37 H8          87.2870    14.1800    21.9090 h1         1 QHY       0.066200
     38 H9          86.6410    14.0750    20.2690 h1         1 QHY       0.066200
     39 H10         84.8660    14.0460    22.0000 h1         1 QHY       0.044450
     40 H11         84.8430    12.5940    20.9970 h1         1 QHY       0.044450
     41 H12         90.1490     9.9650    18.3960 h5         1 QHY       0.030100
     42 H13         88.5510    15.7810    16.6390 h1         1 QHY       0.046450
     43 H14         87.5030    15.0040    17.8210 h1         1 QHY       0.046450
     44 H15         85.0610    17.5590    25.3720 hc         1 QHY       0.047033
     45 H16         86.3430    16.3750    25.1240 hc         1 QHY       0.047033
     46 H17         85.3400    16.8970    23.7620 hc         1 QHY       0.047033
     47 H18         83.3280    15.8750    24.8560 h1         1 QHY       0.028200
     48 H19         84.3310    15.3470    26.2100 h1         1 QHY       0.028200
     49 H20         86.2310    15.8000    15.8310 hc         1 QHY       0.053950
     50 H21         86.1060    14.0600    16.0250 hc         1 QHY       0.053950
     51 H22         87.9860    15.5430    14.1440 hc         1 QHY       0.022700
     52 H23         87.6820    12.5330    14.4910 hc         1 QHY       0.053950
     53 H24         88.7640    13.3520    13.3790 hc         1 QHY       0.053950
     54 H25         89.9470    12.6220    15.4490 h1         1 QHY       0.046450
     55 H26         90.0060    14.3670    15.2340 h1         1 QHY       0.046450
     56 H27         82.5000    14.0080    25.8930 ha         1 QHY       0.111000
     57 O           84.7200    14.4070    24.4050 os         1 QHY      -0.333100
@<TRIPOS>BOND
     1     1     2 ar  
     2     1    26 ar  
     3     1    30 1   
     4     2     3 ar  
     5     2    31 1   
     6     3     5 ar  
     7     3    32 1   
     8     4     8 1   
     9     4     9 1   
    10     4    11 1   
    11     5    17 1   
    12     5    24 ar  
    13     6     8 1   
    14     6    17 1   
    15     6    33 1   
    16     6    34 1   
    17     7    11 ar  
    18     7    13 ar  
    19     8    35 1   
    20     8    36 1   
    21     9    10 1   
    22     9    37 1   
    23     9    38 1   
    24    10    17 1   
    25    10    39 1   
    26    10    40 1   
    27    11    16 ar  
    28    12    13 ar  
    29    12    14 ar  
    30    13    41 1   
    31    14    16 ar  
    32    14    27 1   
    33    15    20 1   
    34    15    27 1   
    35    15    42 1   
    36    15    43 1   
    37    18    19 1   
    38    18    44 1   
    39    18    45 1   
    40    18    46 1   
    41    19    47 1   
    42    19    48 1   
    43    19    57 1   
    44    20    21 1   
    45    20    49 1   
    46    20    50 1   
    47    21    22 1   
    48    21    25 1   
    49    21    51 1   
    50    22    23 1   
    51    22    52 1   
    52    22    53 1   
    53    23    27 1   
    54    23    54 1   
    55    23    55 1   
    56    24    26 ar  
    57    24    57 1   
    58    25    28 1   
    59    25    29 1   
    60    26    56 1   
@<TRIPOS>SUBSTRUCTURE
     1 QHY         1 TEMP              0 ****  ****    0 ROOT
