@<TRIPOS>MOLECULE
QHY
   57    60     1     0     0
SMALL
No Charge or Current Charge


@<TRIPOS>ATOM
      1 C4          82.6830    12.1820    26.5190 ca         1 QHY      -0.094000
      2 C5          82.9760    10.9400    25.9390 ca         1 QHY      -0.133000
      3 C6          83.8230    10.8670    24.8210 ca         1 QHY      -0.124000
      4 N1          87.0380    11.7830    20.7410 nh         1 QHY      -0.781300
      5 C7          84.3900    12.0330    24.2620 ca         1 QHY       0.238000
      6 C8          86.1430    10.7520    22.9230 c6         1 QHY       0.169800
      7 N2          88.9310    10.8660    19.6550 nb         1 QHY      -0.348000
      8 C9          87.3860    11.0880    22.0330 c6         1 QHY       0.228300
      9 C10         86.0620    12.9180    20.9300 c6         1 QHY       0.228300
     10 C11         84.8370    12.5460    21.8270 c6         1 QHY       0.169800
     11 C12         87.9220    11.7580    19.6330 ca         1 QHY       0.439900
     12 N3          89.5950    11.7090    17.5230 nb         1 QHY      -0.314000
     13 C13         89.7350    10.8860    18.5770 ca         1 QHY       0.197900
     14 C14         88.5540    12.5650    17.5940 ca         1 QHY       0.439900
     15 C15         87.3770    14.5980    16.6110 c6         1 QHY       0.211300
     16 N4          87.6930    12.6220    18.6280 nb         1 QHY      -0.363000
     17 N           85.2410    11.9260    23.1240 nh         1 QHY      -0.766400
     18 C           85.1900    16.7620    24.0040 c3         1 QHY      -0.094100
     19 C1          84.4030    15.7560    24.8580 c3         1 QHY       0.163600
     20 C16         86.7670    14.9740    15.2370 c6         1 QHY      -0.074400
     21 C17         87.8630    15.2680    14.1800 c6         1 QHY      -0.192700
     22 C18         88.8130    14.0440    14.0880 c6         1 QHY      -0.074400
     23 C19         89.4110    13.6750    15.4690 c6         1 QHY       0.211300
     24 C2          84.0900    13.2960    24.8570 ca         1 QHY       0.139100
     25 C20         87.2730    15.6660    12.8050 c          1 QHY       0.724000
     26 C3          83.2350    13.3560    25.9840 ca         1 QHY      -0.195000
     27 N5          88.3490    13.4600    16.5070 nh         1 QHY      -0.741300
     28 O1          87.5340    16.7780    12.3710 o          1 QHY      -0.733000
     29 O2          86.5730    14.8570    12.2130 o          1 QHY      -0.733000
     30 H1          82.0260    12.2350    27.3860 ha         1 QHY       0.106000
     31 H2          82.5450    10.0320    26.3550 ha         1 QHY       0.110000
     32 H3          84.0270     9.8950    24.3810 ha         1 QHY       0.117000
     33 H4          85.5830     9.9340    22.4470 h1         1 QHY       0.044450
     34 H5          86.5040    10.3790    23.8930 h1         1 QHY       0.044450
     35 H6          87.9120    10.1410    21.8480 h1         1 QHY       0.066200
     36 H7          88.0670    11.7240    22.6180 h1         1 QHY       0.066200
     37 H8          86.5780    13.7750    21.3880 h1         1 QHY       0.066200
     38 H9          85.6590    13.2640    19.9670 h1         1 QHY       0.066200
     39 H10         84.2410    13.4530    21.9960 h1         1 QHY       0.044450
     40 H11         84.1980    11.8440    21.2710 h1         1 QHY       0.044450
     41 H12         90.5640    10.1800    18.5550 h5         1 QHY       0.030100
     42 H13         87.8830    15.4790    17.0340 h1         1 QHY       0.046450
     43 H14         86.5390    14.3560    17.2810 h1         1 QHY       0.046450
     44 H15         85.0260    17.7820    24.3710 hc         1 QHY       0.047033
     45 H16         86.2650    16.5490    24.0480 hc         1 QHY       0.047033
     46 H17         84.8660    16.7170    22.9570 hc         1 QHY       0.047033
     47 H18         83.3330    15.9940    24.8080 h1         1 QHY       0.028200
     48 H19         84.7350    15.8250    25.9020 h1         1 QHY       0.028200
     49 H20         86.1150    15.8500    15.3540 hc         1 QHY       0.053950
     50 H21         86.1240    14.1520    14.8930 hc         1 QHY       0.053950
     51 H22         88.4540    16.1240    14.5380 hc         1 QHY       0.022700
     52 H23         88.2700    13.1770    13.6880 hc         1 QHY       0.053950
     53 H24         89.6280    14.2540    13.3820 hc         1 QHY       0.053950
     54 H25         90.0260    12.7750    15.3250 h1         1 QHY       0.046450
     55 H26         90.0890    14.4780    15.7950 h1         1 QHY       0.046450
     56 H27         82.9910    14.3010    26.4590 ha         1 QHY       0.111000
     57 O           84.6590    14.4470    24.3260 os         1 QHY      -0.333100
@<TRIPOS>BOND
     1     1     2 ar  
     2     1    26 ar  
     3     1    30 1   
     4     2     3 ar  
     5     2    31 1   
     6     3     5 ar  
     7     3    32 1   
     8     4     8 1   
     9     4     9 1   
    10     4    11 1   
    11     5    17 1   
    12     5    24 ar  
    13     6     8 1   
    14     6    17 1   
    15     6    33 1   
    16     6    34 1   
    17     7    11 ar  
    18     7    13 ar  
    19     8    35 1   
    20     8    36 1   
    21     9    10 1   
    22     9    37 1   
    23     9    38 1   
    24    10    17 1   
    25    10    39 1   
    26    10    40 1   
    27    11    16 ar  
    28    12    13 ar  
    29    12    14 ar  
    30    13    41 1   
    31    14    16 ar  
    32    14    27 1   
    33    15    20 1   
    34    15    27 1   
    35    15    42 1   
    36    15    43 1   
    37    18    19 1   
    38    18    44 1   
    39    18    45 1   
    40    18    46 1   
    41    19    47 1   
    42    19    48 1   
    43    19    57 1   
    44    20    21 1   
    45    20    49 1   
    46    20    50 1   
    47    21    22 1   
    48    21    25 1   
    49    21    51 1   
    50    22    23 1   
    51    22    52 1   
    52    22    53 1   
    53    23    27 1   
    54    23    54 1   
    55    23    55 1   
    56    24    26 ar  
    57    24    57 1   
    58    25    28 1   
    59    25    29 1   
    60    26    56 1   
@<TRIPOS>SUBSTRUCTURE
     1 QHY         1 TEMP              0 ****  ****    0 ROOT
