@<TRIPOS>MOLECULE
QHZ
   62    66     1     0     0
SMALL
abcg2


@<TRIPOS>ATOM
      1 C1          38.2000    21.7350    -4.7990 c3         1 QHZ       0.039800
      2 C10         35.6830    23.8810    -7.9300 cx         1 QHZ      -0.029400
      3 C11         34.7550    23.0900    -8.8120 cx         1 QHZ      -0.056400
      4 C12         35.2890    22.1810    -9.8540 ca         1 QHZ      -0.005300
      5 C13         34.6710    22.1310   -11.1030 ca         1 QHZ      -0.090500
      6 C14         35.1430    21.2950   -12.1050 ca         1 QHZ      -0.124000
      7 C15         36.2520    20.4910   -11.8780 ca         1 QHZ      -0.143000
      8 C16         36.8760    20.5300   -10.6370 ca         1 QHZ      -0.124000
      9 C17         36.3980    21.3630    -9.6350 ca         1 QHZ      -0.090500
     10 C18         34.8730    22.7630    -7.3530 cx         1 QHZ      -0.133400
     11 C19         34.4560    25.0410    -4.1000 ca         1 QHZ      -0.112000
     12 C2          37.1130    20.6780    -5.1140 c          1 QHZ       0.730000
     13 C20         34.6510    24.3040    -2.9410 ca         1 QHZ      -0.122000
     14 C21         35.7570    23.4820    -2.8010 ca         1 QHZ      -0.061000
     15 C22         39.8910    24.3960    -3.7840 ca         1 QHZ      -0.257500
     16 C23         40.9340    23.9880    -4.5960 ca         1 QHZ      -0.048000
     17 C24         41.5140    24.9040    -5.4760 ca         1 QHZ       0.109100
     18 C25         43.1340    25.3060    -7.1620 c3         1 QHZ       0.151900
     19 C26         41.0300    26.2100    -5.5230 ca         1 QHZ      -0.157000
     20 C27         39.9840    26.5920    -4.6910 ca         1 QHZ      -0.093000
     21 C28         39.4010    25.6980    -3.8120 ca         1 QHZ      -0.049000
     22 C3          36.7020    23.4230    -3.8170 ca         1 QHZ       0.279000
     23 C4          36.5330    24.1820    -4.9680 ca         1 QHZ      -0.125000
     24 C5          35.3970    24.9660    -5.1180 ca         1 QHZ       0.039800
     25 C6          34.7240    27.3860    -7.4720 cc         1 QHZ       0.255900
     26 C7          35.0600    26.3720    -8.3890 cc         1 QHZ      -0.223600
     27 C8          35.0950    26.5060    -9.8870 c          1 QHZ       0.738600
     28 C9          35.3540    25.2800    -7.5930 cd         1 QHZ      -0.091300
     29 N1          37.8450    22.5890    -3.6670 nh         1 QHZ      -0.677300
     30 N2          35.2040    25.7020    -6.3050 na         1 QHZ       0.193000
     31 N3          34.8170    26.9810    -6.2250 nd         1 QHZ      -0.584800
     32 O1          40.0070    22.1050    -2.4990 o          1 QHZ      -0.561000
     33 O2          36.2570    20.4470    -4.2490 o          1 QHZ      -0.712000
     34 O3          37.2560    20.1340    -6.2270 o          1 QHZ      -0.712000
     35 O4          35.6920    25.6170   -10.5240 o          1 QHZ      -0.730000
     36 O5          34.5290    27.5170   -10.3510 o          1 QHZ      -0.730000
     37 O6          42.5260    24.4380    -6.2240 os         1 QHZ      -0.343100
     38 O7          38.4910    23.9060    -1.6280 o          1 QHZ      -0.561000
     39 S1          39.0870    23.2020    -2.7490 sy         1 QHZ       1.125600
     40 H2          39.1110    21.1900    -4.5490 h1         1 QHZ       0.041700
     41 H1          38.4260    22.3190    -5.6960 h1         1 QHZ       0.041700
     42 H6          36.7400    23.6780    -8.0790 hc         1 QHZ       0.093700
     43 H7          33.8480    23.6080    -9.1030 hc         1 QHZ       0.085700
     44 H8          33.8070    22.7570   -11.2920 ha         1 QHZ       0.129000
     45 H9          34.6440    21.2740   -13.0660 ha         1 QHZ       0.092000
     46 H10         36.6250    19.8390   -12.6570 ha         1 QHZ       0.081000
     47 H11         37.7390    19.9050   -10.4450 ha         1 QHZ       0.092000
     48 H12         36.8980    21.3570    -8.6720 ha         1 QHZ       0.129000
     49 H14         34.0330    23.0120    -6.7170 hc         1 QHZ       0.089200
     50 H13         35.3940    21.8580    -7.0690 hc         1 QHZ       0.089200
     51 H15         33.5750    25.6570    -4.2180 ha         1 QHZ       0.121000
     52 H16         33.9140    24.3520    -2.1500 ha         1 QHZ       0.097000
     53 H17         35.8810    22.8780    -1.9140 ha         1 QHZ       0.129000
     54 H18         41.3150    22.9750    -4.5590 ha         1 QHZ       0.146000
     55 H21         43.9050    24.7250    -7.6620 h1         1 QHZ       0.034700
     56 H20         42.4210    25.6620    -7.9090 h1         1 QHZ       0.034700
     57 H19         43.6010    26.1680    -6.6780 h1         1 QHZ       0.034700
     58 H22         41.4560    26.9440    -6.1940 ha         1 QHZ       0.108000
     59 H23         39.6240    27.6110    -4.7340 ha         1 QHZ       0.112000
     60 H24         38.5930    26.0110    -3.1670 ha         1 QHZ       0.141000
     61 H3          37.2830    24.1710    -5.7470 ha         1 QHZ       0.135000
     62 H4          34.4310    28.4020    -7.6890 h4         1 QHZ       0.026100
@<TRIPOS>BOND
     1     1    12 1   
     2     1    29 1   
     3     1    40 1   
     4     1    41 1   
     5     2     3 1   
     6     2    10 1   
     7     2    28 1   
     8     2    42 1   
     9     3     4 1   
    10     3    10 1   
    11     3    43 1   
    12     4     5 ar  
    13     4     9 ar  
    14     5     6 ar  
    15     5    44 1   
    16     6     7 ar  
    17     6    45 1   
    18     7     8 ar  
    19     7    46 1   
    20     8     9 ar  
    21     8    47 1   
    22     9    48 1   
    23    10    49 1   
    24    10    50 1   
    25    11    13 ar  
    26    11    24 ar  
    27    11    51 1   
    28    12    33 1   
    29    12    34 1   
    30    13    14 ar  
    31    13    52 1   
    32    14    22 ar  
    33    14    53 1   
    34    15    16 ar  
    35    15    21 ar  
    36    15    39 1   
    37    16    17 ar  
    38    16    54 1   
    39    17    19 ar  
    40    17    37 1   
    41    18    37 1   
    42    18    55 1   
    43    18    56 1   
    44    18    57 1   
    45    19    20 ar  
    46    19    58 1   
    47    20    21 ar  
    48    20    59 1   
    49    21    60 1   
    50    22    23 ar  
    51    22    29 1   
    52    23    24 ar  
    53    23    61 1   
    54    24    30 1   
    55    25    26 1   
    56    25    31 2   
    57    25    62 1   
    58    26    27 1   
    59    26    28 2   
    60    27    35 1   
    61    27    36 1   
    62    28    30 1   
    63    29    39 1   
    64    30    31 1   
    65    32    39 2   
    66    38    39 2   
@<TRIPOS>SUBSTRUCTURE
     1 QHZ         1 TEMP              0 ****  ****    0 ROOT
