@<TRIPOS>MOLECULE
QHZ
   62    66     1     0     0
SMALL
No Charge or Current Charge


@<TRIPOS>ATOM
      1 C1          38.6590    21.3250    -4.4860 c3         1 QHZ       0.039800
      2 C10         35.8550    23.5100    -8.2040 cx         1 QHZ      -0.029400
      3 C11         34.6340    23.0520    -8.9820 cx         1 QHZ      -0.056400
      4 C12         34.6780    21.9230    -9.9860 ca         1 QHZ      -0.005300
      5 C13         33.8690    21.9880   -11.1400 ca         1 QHZ      -0.090500
      6 C14         33.8840    20.9480   -12.0850 ca         1 QHZ      -0.124000
      7 C15         34.7090    19.8300   -11.8880 ca         1 QHZ      -0.143000
      8 C16         35.5190    19.7530   -10.7440 ca         1 QHZ      -0.124000
      9 C17         35.5040    20.7930    -9.7970 ca         1 QHZ      -0.090500
     10 C18         34.7210    22.7980    -7.4970 cx         1 QHZ      -0.133400
     11 C19         35.0040    25.0010    -4.7050 ca         1 QHZ      -0.112000
     12 C2          37.6740    20.7340    -5.5480 c          1 QHZ       0.730000
     13 C20         34.9150    24.2520    -3.5210 ca         1 QHZ      -0.122000
     14 C21         35.9610    23.3840    -3.1610 ca         1 QHZ      -0.061000
     15 C22         39.7100    24.5930    -3.2640 ca         1 QHZ      -0.257500
     16 C23         40.7350    24.5710    -4.2350 ca         1 QHZ      -0.048000
     17 C24         41.0860    25.7420    -4.9300 ca         1 QHZ       0.109100
     18 C25         42.5120    26.7920    -6.6510 c3         1 QHZ       0.151900
     19 C26         40.4050    26.9480    -4.6530 ca         1 QHZ      -0.157000
     20 C27         39.3830    26.9720    -3.6880 ca         1 QHZ      -0.093000
     21 C28         39.0340    25.8010    -2.9940 ca         1 QHZ      -0.049000
     22 C3          37.0990    23.2570    -3.9810 ca         1 QHZ       0.279000
     23 C4          37.1700    23.9960    -5.1760 ca         1 QHZ      -0.125000
     24 C5          36.1300    24.8720    -5.5410 ca         1 QHZ       0.039800
     25 C6          36.4680    27.1630    -8.0850 cc         1 QHZ       0.255900
     26 C7          36.2990    25.9840    -8.8360 cc         1 QHZ      -0.223600
     27 C8          36.3500    25.9550   -10.3160 c          1 QHZ       0.738600
     28 C9          36.1130    24.9580    -7.9370 cd         1 QHZ      -0.091300
     29 N1          38.1650    22.4230    -3.5960 nh         1 QHZ      -0.677300
     30 N2          36.2220    25.6310    -6.7090 na         1 QHZ       0.193000
     31 N3          36.4270    26.9950    -6.7800 nd         1 QHZ      -0.584800
     32 O1          40.3930    22.1750    -2.3490 o          1 QHZ      -0.561000
     33 O2          36.7000    20.1030    -5.1570 o          1 QHZ      -0.712000
     34 O3          37.9360    20.9000    -6.7320 o          1 QHZ      -0.712000
     35 O4          36.2630    24.8930   -10.9090 o          1 QHZ      -0.730000
     36 O5          36.5050    27.0160   -10.9040 o          1 QHZ      -0.730000
     37 O6          42.0920    25.6570    -5.8720 os         1 QHZ      -0.343100
     38 O7          38.4310    23.3920    -1.2380 o          1 QHZ      -0.561000
     39 S1          39.2290    23.0680    -2.4270 sy         1 QHZ       1.125600
     40 H2          38.9740    20.4760    -3.8650 h1         1 QHZ       0.041700
     41 H1          39.5480    21.6740    -5.0280 h1         1 QHZ       0.041700
     42 H6          36.7730    22.9430    -8.3340 hc         1 QHZ       0.093700
     43 H7          33.9500    23.8410    -9.2850 hc         1 QHZ       0.085700
     44 H8          33.2260    22.8490   -11.3060 ha         1 QHZ       0.129000
     45 H9          33.2560    21.0100   -12.9710 ha         1 QHZ       0.092000
     46 H10         34.7210    19.0250   -12.6190 ha         1 QHZ       0.081000
     47 H11         36.1590    18.8870   -10.5880 ha         1 QHZ       0.092000
     48 H12         36.1380    20.7120    -8.9180 ha         1 QHZ       0.129000
     49 H14         34.0580    23.3760    -6.8610 hc         1 QHZ       0.089200
     50 H13         34.9020    21.7830    -7.1520 hc         1 QHZ       0.089200
     51 H15         34.2000    25.6800    -4.9780 ha         1 QHZ       0.121000
     52 H16         34.0430    24.3480    -2.8790 ha         1 QHZ       0.097000
     53 H17         35.8950    22.8110    -2.2410 ha         1 QHZ       0.129000
     54 H18         41.2560    23.6440    -4.4620 ha         1 QHZ       0.146000
     55 H21         43.3170    26.5040    -7.3380 h1         1 QHZ       0.034700
     56 H20         41.6780    27.1840    -7.2480 h1         1 QHZ       0.034700
     57 H19         42.8880    27.5920    -6.0010 h1         1 QHZ       0.034700
     58 H22         40.6500    27.8690    -5.1740 ha         1 QHZ       0.108000
     59 H23         38.8550    27.9000    -3.4800 ha         1 QHZ       0.112000
     60 H24         38.2310    25.8350    -2.2600 ha         1 QHZ       0.141000
     61 H3          38.0480    23.9090    -5.8080 ha         1 QHZ       0.135000
     62 H4          36.6340    28.1620    -8.4670 h4         1 QHZ       0.026100
@<TRIPOS>BOND
     1     1    12 1   
     2     1    29 1   
     3     1    40 1   
     4     1    41 1   
     5     2     3 1   
     6     2    10 1   
     7     2    28 1   
     8     2    42 1   
     9     3     4 1   
    10     3    10 1   
    11     3    43 1   
    12     4     5 ar  
    13     4     9 ar  
    14     5     6 ar  
    15     5    44 1   
    16     6     7 ar  
    17     6    45 1   
    18     7     8 ar  
    19     7    46 1   
    20     8     9 ar  
    21     8    47 1   
    22     9    48 1   
    23    10    49 1   
    24    10    50 1   
    25    11    13 ar  
    26    11    24 ar  
    27    11    51 1   
    28    12    33 1   
    29    12    34 1   
    30    13    14 ar  
    31    13    52 1   
    32    14    22 ar  
    33    14    53 1   
    34    15    16 ar  
    35    15    21 ar  
    36    15    39 1   
    37    16    17 ar  
    38    16    54 1   
    39    17    19 ar  
    40    17    37 1   
    41    18    37 1   
    42    18    55 1   
    43    18    56 1   
    44    18    57 1   
    45    19    20 ar  
    46    19    58 1   
    47    20    21 ar  
    48    20    59 1   
    49    21    60 1   
    50    22    23 ar  
    51    22    29 1   
    52    23    24 ar  
    53    23    61 1   
    54    24    30 1   
    55    25    26 1   
    56    25    31 2   
    57    25    62 1   
    58    26    27 1   
    59    26    28 2   
    60    27    35 1   
    61    27    36 1   
    62    28    30 1   
    63    29    39 1   
    64    30    31 1   
    65    32    39 2   
    66    38    39 2   
@<TRIPOS>SUBSTRUCTURE
     1 QHZ         1 TEMP              0 ****  ****    0 ROOT
