@<TRIPOS>MOLECULE
QI1
   44    45     1     0     0
SMALL
No Charge or Current Charge


@<TRIPOS>ATOM
      1 O1           6.5040     3.8550    -0.5450 oh         1 QI1      -0.424100
      2 N1           5.5050     3.0210     0.0920 ns         1 QI1      -0.391400
      3 C1           4.8000     2.0670    -0.6330 c          1 QI1       0.602100
      4 O2           4.8240     2.0160    -1.8560 o          1 QI1      -0.566100
      5 C2           4.0100     1.0600     0.2140 c3         1 QI1      -0.160400
      6 C3           2.4860     1.3220     0.1380 c3         1 QI1      -0.069400
      7 C4           1.6610     0.3200     0.9790 c3         1 QI1       0.168800
      8 N2           0.1880     0.3980     0.7840 n3         1 QI1      -0.728600
      9 C5          -0.5240    -0.7590     1.3930 c3         1 QI1       0.215600
     10 C6          -0.1340    -2.1010     0.7820 ca         1 QI1      -0.088800
     11 C7          -0.4280    -2.3700    -0.5700 ca         1 QI1      -0.090750
     12 C8          -0.0690    -3.6040    -1.1420 ca         1 QI1      -0.105500
     13 C9          -0.4000     1.7020     1.1950 c3         1 QI1       0.215600
     14 C10          0.5210    -3.0790     1.5570 ca         1 QI1      -0.090750
     15 C11          0.8800    -4.3130     0.9840 ca         1 QI1      -0.105500
     16 C12          0.5850    -4.5730    -0.3640 ca         1 QI1       0.122000
     17 Cl1          1.0350    -6.1160    -1.0800 cl         1 QI1      -0.205500
     18 C13         -1.8720     1.8530     0.8160 ca         1 QI1      -0.088800
     19 C14         -2.8560     2.0120     1.8130 ca         1 QI1      -0.090750
     20 C15         -4.2100     2.1440     1.4570 ca         1 QI1      -0.105500
     21 C16         -2.2570     1.8290    -0.5390 ca         1 QI1      -0.090750
     22 C17         -3.6110     1.9610    -0.8950 ca         1 QI1      -0.105500
     23 C18         -4.5850     2.1180     0.1040 ca         1 QI1       0.122000
     24 Cl2         -6.2790     2.2830    -0.3410 cl         1 QI1      -0.205500
     25 H1           4.2080     0.0520    -0.1690 hc         1 QI1       0.059700
     26 H2           4.3220     1.1240     1.2630 hc         1 QI1       0.059700
     27 H3           2.2900     2.3460     0.4790 hc         1 QI1       0.061200
     28 H4           2.1590     1.2600    -0.9080 hc         1 QI1       0.061200
     29 H5           2.0130    -0.6830     0.7070 h1         1 QI1       0.034700
     30 H6           1.9070     0.4640     2.0410 h1         1 QI1       0.034700
     31 H7          -0.3400    -0.7830     2.4760 h1         1 QI1       0.043450
     32 H8          -1.6090    -0.6540     1.2630 h1         1 QI1       0.043450
     33 H9          -0.9300    -1.6180    -1.1760 ha         1 QI1       0.122000
     34 H10         -0.2950    -3.8070    -2.1860 ha         1 QI1       0.129750
     35 H11         -0.2880     1.8370     2.2800 h1         1 QI1       0.043450
     36 H12          0.1330     2.5330     0.7170 h1         1 QI1       0.043450
     37 H13          0.7560    -2.8840     2.6010 ha         1 QI1       0.122000
     38 H14          1.3870    -5.0650     1.5830 ha         1 QI1       0.129750
     39 H15         -2.5730     2.0300     2.8640 ha         1 QI1       0.122000
     40 H16         -4.9670     2.2650     2.2270 ha         1 QI1       0.129750
     41 H17         -1.5040     1.7020    -1.3140 ha         1 QI1       0.122000
     42 H18         -3.9040     1.9400    -1.9410 ha         1 QI1       0.129750
     43 H19          6.2670     4.7670    -0.2530 ho         1 QI1       0.445000
     44 H20          5.5760     2.9260     1.1040 hn         1 QI1       0.332500
@<TRIPOS>BOND
     1     1     2 1   
     2     1    43 1   
     3     2     3 1   
     4     2    44 1   
     5     3     4 2   
     6     3     5 1   
     7     5     6 1   
     8     5    25 1   
     9     5    26 1   
    10     6     7 1   
    11     6    27 1   
    12     6    28 1   
    13     7     8 1   
    14     7    29 1   
    15     7    30 1   
    16     8     9 1   
    17     8    13 1   
    18     9    10 1   
    19     9    31 1   
    20     9    32 1   
    21    10    11 ar  
    22    10    14 ar  
    23    11    12 ar  
    24    11    33 1   
    25    12    16 ar  
    26    12    34 1   
    27    13    18 1   
    28    13    35 1   
    29    13    36 1   
    30    14    15 ar  
    31    14    37 1   
    32    15    16 ar  
    33    15    38 1   
    34    16    17 1   
    35    18    19 ar  
    36    18    21 ar  
    37    19    20 ar  
    38    19    39 1   
    39    20    23 ar  
    40    20    40 1   
    41    21    22 ar  
    42    21    41 1   
    43    22    23 ar  
    44    22    42 1   
    45    23    24 1   
@<TRIPOS>SUBSTRUCTURE
     1 QI1         1 TEMP              0 ****  ****    0 ROOT
