@<TRIPOS>MOLECULE
QI1
   44    45     1     0     0
SMALL
bcc


@<TRIPOS>ATOM
      1 O1           6.3600     3.6340    -0.9610 oh         1 QI1      -0.385100
      2 N1           5.5110     2.9360    -0.1550 ns         1 QI1      -0.458400
      3 C1           4.5800     2.1260    -0.6940 c          1 QI1       0.669100
      4 O2           4.3210     2.1030    -1.8840 o          1 QI1      -0.566100
      5 C2           3.8700     1.2660     0.3250 c3         1 QI1      -0.160400
      6 C3           2.3550     1.3230     0.1690 c3         1 QI1      -0.069400
      7 C4           1.6690     0.4200     1.1840 c3         1 QI1       0.168800
      8 N2           0.2240     0.3870     1.0310 n3         1 QI1      -0.728600
      9 C5          -0.3570    -0.7980     1.6280 c3         1 QI1       0.215600
     10 C6          -0.0380    -2.0530     0.8600 ca         1 QI1      -0.088800
     11 C7          -0.0460    -2.0600    -0.5320 ca         1 QI1      -0.108750
     12 C8           0.2030    -3.2240    -1.2440 ca         1 QI1      -0.123500
     13 C9          -0.4260     1.5950     1.5030 c3         1 QI1       0.215600
     14 C10          0.2340    -3.2420     1.5280 ca         1 QI1      -0.108750
     15 C11          0.4820    -4.4190     0.8330 ca         1 QI1      -0.123500
     16 C12          0.4630    -4.3970    -0.5510 ca         1 QI1       0.030400
     17 CL1          0.7760    -5.8580    -1.4340 cl         1 QI1      -0.113900
     18 C13         -1.8260     1.7260     0.9640 ca         1 QI1      -0.088800
     19 C14         -2.8970     2.0260     1.7970 ca         1 QI1      -0.108750
     20 C15         -4.1830     2.1730     1.2920 ca         1 QI1      -0.123500
     21 C16         -2.0670     1.5670    -0.3990 ca         1 QI1      -0.108750
     22 C17         -3.3420     1.7080    -0.9220 ca         1 QI1      -0.123500
     23 C18         -4.3920     2.0110    -0.0670 ca         1 QI1       0.030400
     24 CL2         -5.9940     2.1840    -0.7120 cl         1 QI1      -0.113900
     25 H1           4.2200     0.2390     0.1830 hc         1 QI1       0.059700
     26 H2           4.1530     1.5500     1.3420 hc         1 QI1       0.059700
     27 H3           2.0250     2.3590     0.2840 hc         1 QI1       0.061200
     28 H4           2.0660     1.0070    -0.8350 hc         1 QI1       0.061200
     29 H5           2.0450    -0.5950     1.0370 h1         1 QI1       0.034700
     30 H6           1.9630     0.7090     2.2070 h1         1 QI1       0.034700
     31 H7          -0.0570    -0.9280     2.6810 h1         1 QI1       0.043450
     32 H8          -1.4450    -0.6770     1.6400 h1         1 QI1       0.043450
     33 H9          -0.2380    -1.1400    -1.0690 ha         1 QI1       0.140000
     34 H10          0.1950    -3.2150    -2.3250 ha         1 QI1       0.147750
     35 H11         -0.4430     1.6620     2.6030 h1         1 QI1       0.043450
     36 H12          0.1530     2.4560     1.1620 h1         1 QI1       0.043450
     37 H13          0.2580    -3.2570     2.6110 ha         1 QI1       0.140000
     38 H14          0.6950    -5.3340     1.3690 ha         1 QI1       0.147750
     39 H15         -2.7360     2.1420     2.8620 ha         1 QI1       0.140000
     40 H16         -5.0070     2.4010     1.9540 ha         1 QI1       0.147750
     41 H17         -1.2450     1.3260    -1.0600 ha         1 QI1       0.140000
     42 H18         -3.5150     1.5840    -1.9830 ha         1 QI1       0.147750
     43 H19          5.9970     4.5270    -1.0230 ho         1 QI1       0.406000
     44 H20          5.8160     2.8460     0.8030 hn         1 QI1       0.332500
@<TRIPOS>BOND
     1     1     2 1   
     2     1    43 1   
     3     2     3 1   
     4     2    44 1   
     5     3     4 2   
     6     3     5 1   
     7     5     6 1   
     8     5    25 1   
     9     5    26 1   
    10     6     7 1   
    11     6    27 1   
    12     6    28 1   
    13     7     8 1   
    14     7    29 1   
    15     7    30 1   
    16     8     9 1   
    17     8    13 1   
    18     9    10 1   
    19     9    31 1   
    20     9    32 1   
    21    10    11 ar  
    22    10    14 ar  
    23    11    12 ar  
    24    11    33 1   
    25    12    16 ar  
    26    12    34 1   
    27    13    18 1   
    28    13    35 1   
    29    13    36 1   
    30    14    15 ar  
    31    14    37 1   
    32    15    16 ar  
    33    15    38 1   
    34    16    17 1   
    35    18    19 ar  
    36    18    21 ar  
    37    19    20 ar  
    38    19    39 1   
    39    20    23 ar  
    40    20    40 1   
    41    21    22 ar  
    42    21    41 1   
    43    22    23 ar  
    44    22    42 1   
    45    23    24 1   
@<TRIPOS>SUBSTRUCTURE
     1 QI1         1 TEMP              0 ****  ****    0 ROOT
