@<TRIPOS>MOLECULE
QI2
   63    64     1     0     0
SMALL
abcg2


@<TRIPOS>ATOM
      1 OAA         -1.9430    -4.1700    -0.7690 oh         1 QI2      -0.423100
      2 NAB         -2.1260    -3.0490    -0.0190 ns         1 QI2      -0.392400
      3 CAC         -1.9520    -1.8300    -0.5600 c          1 QI2       0.601100
      4 OAD         -1.7790    -1.6410    -1.7520 o          1 QI2      -0.573100
      5 CAE         -2.0340    -0.7030     0.4530 c3         1 QI2      -0.136700
      6 CAF         -3.2860     0.1370     0.1910 c3         1 QI2      -0.061400
      7 CAG         -4.5890    -0.6560     0.2030 c3         1 QI2       0.215600
      8 CAH         -5.7670     0.2630    -0.0310 ca         1 QI2      -0.143300
      9 CAI         -6.3460     0.3620    -1.2900 ca         1 QI2      -0.068000
     10 CAJ         -7.3940     1.2400    -1.5340 ca         1 QI2      -0.155000
     11 CAK         -0.7750     0.1650     0.3900 c3         1 QI2      -0.069400
     12 OAL         -4.6760    -1.3330     1.4320 os         1 QI2      -0.460000
     13 CAM         -6.2640     1.0580     0.9990 ca         1 QI2      -0.068000
     14 CAN         -7.3140     1.9370     0.7790 ca         1 QI2      -0.155000
     15 CAO         -7.8590     2.0130    -0.4890 ca         1 QI2       0.176000
     16 FAP         -8.8750     2.8650    -0.7090 f          1 QI2      -0.178000
     17 CAQ          0.4830    -0.6130     0.7580 c3         1 QI2       0.163800
     18 CAR         -5.6580    -2.3400     1.4500 c3         1 QI2       0.143900
     19 CAS          1.7180     1.1780     1.7770 c3         1 QI2       0.145100
     20 NAT          1.6980     0.1860     0.7200 n3         1 QI2      -0.707600
     21 CAU          2.8650    -0.6800     0.7750 c3         1 QI2       0.165800
     22 CAV          4.1860     0.0370     0.5330 c3         1 QI2      -0.076400
     23 CAW          5.3480    -0.9560     0.4560 c3         1 QI2      -0.030100
     24 CAX          6.6680    -0.2670     0.2500 ca         1 QI2      -0.089300
     25 CAY          7.1090     0.0560    -1.0320 ca         1 QI2      -0.083000
     26 CAZ          8.3040     0.7290    -1.2650 ca         1 QI2      -0.110300
     27 CBA          8.7710     1.0690    -2.6490 c3         1 QI2      -0.040800
     28 CBB          7.4580     0.1040     1.3320 ca         1 QI2      -0.087000
     29 CBC          8.6590     0.7750     1.1390 ca         1 QI2      -0.147000
     30 CBD          9.0530     1.0720    -0.1480 ca         1 QI2       0.164000
     31 FBE         10.2180     1.7230    -0.3360 f          1 QI2      -0.183000
     32 HAE         -2.1030    -1.1210     1.4620 hc         1 QI2       0.063700
     33 HAF         -3.3350     0.9320     0.9420 hc         1 QI2       0.064700
     34 HAFA        -3.2010     0.6330    -0.7800 hc         1 QI2       0.064700
     35 HAG         -4.5680    -1.3880    -0.6210 h1         1 QI2       0.044700
     36 HAI         -5.9790    -0.2580    -2.1000 ha         1 QI2       0.123000
     37 HAJ         -7.8430     1.3150    -2.5170 ha         1 QI2       0.133500
     38 HAK         -0.6650     0.5920    -0.6100 hc         1 QI2       0.061700
     39 HAM         -5.8360     0.9930     1.9910 ha         1 QI2       0.123000
     40 HAN         -7.6990     2.5530     1.5800 ha         1 QI2       0.133500
     41 HAQ          0.3440    -1.0850     1.7480 h1         1 QI2       0.031700
     42 HAR         -6.6720    -1.9400     1.3450 h1         1 QI2       0.032033
     43 HARA        -5.4980    -3.0730     0.6510 h1         1 QI2       0.032033
     44 HARB        -5.5900    -2.8530     2.4090 h1         1 QI2       0.032033
     45 HAS          1.7240     0.7290     2.7830 h1         1 QI2       0.030700
     46 HASA         2.5960     1.8170     1.6920 h1         1 QI2       0.030700
     47 HASB         0.8510     1.8320     1.7100 h1         1 QI2       0.030700
     48 HAU          2.9200    -1.2180     1.7400 h1         1 QI2       0.029700
     49 HAV          4.1270     0.6070    -0.3990 hc         1 QI2       0.051700
     50 HAW          5.3810    -1.5450     1.3770 hc         1 QI2       0.047200
     51 HAWA         5.1680    -1.6620    -0.3580 hc         1 QI2       0.047200
     52 HAY          6.5030    -0.2290    -1.8860 ha         1 QI2       0.116000
     53 HBA          8.9160     2.1430    -2.7740 hc         1 QI2       0.047367
     54 HBAA         9.7200     0.5850    -2.8850 hc         1 QI2       0.047367
     55 HBAB         8.0420     0.7450    -3.3890 hc         1 QI2       0.047367
     56 HBB          7.1390    -0.1320     2.3400 ha         1 QI2       0.115000
     57 HBC          9.2800     1.0610     1.9790 ha         1 QI2       0.130000
     58 H27         -2.8230    -4.4570    -1.0480 ho         1 QI2       0.440000
     59 H28         -2.1560    -3.1990     0.9790 hn         1 QI2       0.339500
     60 H29         -0.9240     1.0000     1.0770 hc         1 QI2       0.061700
     61 H30          0.6120    -1.4300     0.0440 h1         1 QI2       0.031700
     62 H31          2.7470    -1.4460     0.0030 h1         1 QI2       0.029700
     63 H32          4.3920     0.7550     1.3300 hc         1 QI2       0.051700
@<TRIPOS>BOND
     1     1     2 1   
     2     1    58 1   
     3     2     3 1   
     4     2    59 1   
     5     3     4 2   
     6     3     5 1   
     7     5     6 1   
     8     5    11 1   
     9     5    32 1   
    10     6     7 1   
    11     6    33 1   
    12     6    34 1   
    13     7     8 1   
    14     7    12 1   
    15     7    35 1   
    16     8     9 ar  
    17     8    13 ar  
    18     9    10 ar  
    19     9    36 1   
    20    10    15 ar  
    21    10    37 1   
    22    11    17 1   
    23    11    38 1   
    24    11    60 1   
    25    12    18 1   
    26    13    14 ar  
    27    13    39 1   
    28    14    15 ar  
    29    14    40 1   
    30    15    16 1   
    31    17    20 1   
    32    17    41 1   
    33    17    61 1   
    34    18    42 1   
    35    18    43 1   
    36    18    44 1   
    37    19    20 1   
    38    19    45 1   
    39    19    46 1   
    40    19    47 1   
    41    20    21 1   
    42    21    22 1   
    43    21    48 1   
    44    21    62 1   
    45    22    23 1   
    46    22    49 1   
    47    22    63 1   
    48    23    24 1   
    49    23    50 1   
    50    23    51 1   
    51    24    25 ar  
    52    24    28 ar  
    53    25    26 ar  
    54    25    52 1   
    55    26    27 1   
    56    26    30 ar  
    57    27    53 1   
    58    27    54 1   
    59    27    55 1   
    60    28    29 ar  
    61    28    56 1   
    62    29    30 ar  
    63    29    57 1   
    64    30    31 1   
@<TRIPOS>SUBSTRUCTURE
     1 QI2         1 TEMP              0 ****  ****    0 ROOT
