@<TRIPOS>MOLECULE
QI2
   63    64     1     0     0
SMALL
No Charge or Current Charge


@<TRIPOS>ATOM
      1 OAA         -1.6140    -4.1800    -1.0060 oh         1 QI2      -0.423100
      2 NAB         -1.9980    -3.0690    -0.1610 ns         1 QI2      -0.392400
      3 CAC         -1.9340    -1.7590    -0.6250 c          1 QI2       0.601100
      4 OAD         -1.7880    -1.4910    -1.8110 o          1 QI2      -0.573100
      5 CAE         -2.0740    -0.6700     0.4610 c3         1 QI2      -0.136700
      6 CAF         -3.3480     0.1960     0.2330 c3         1 QI2      -0.061400
      7 CAG         -4.6660    -0.6080     0.0950 c3         1 QI2       0.215600
      8 CAH         -5.8780     0.3060    -0.0970 ca         1 QI2      -0.143300
      9 CAI         -6.5740     0.3030    -1.3240 ca         1 QI2      -0.068000
     10 CAJ         -7.6890     1.1400    -1.5080 ca         1 QI2      -0.155000
     11 CAK         -0.7950     0.2080     0.5660 c3         1 QI2      -0.069400
     12 OAL         -4.8320    -1.3890     1.2950 os         1 QI2      -0.460000
     13 CAM         -6.3130     1.1560     0.9430 ca         1 QI2      -0.068000
     14 CAN         -7.4280     1.9920     0.7560 ca         1 QI2      -0.155000
     15 CAO         -8.1110     1.9810    -0.4690 ca         1 QI2       0.176000
     16 FAP         -9.1830     2.7840    -0.6470 f          1 QI2      -0.178000
     17 CAQ          0.4890    -0.5920     0.9040 c3         1 QI2       0.163800
     18 CAR         -5.8970    -2.3560     1.2580 c3         1 QI2       0.143900
     19 CAS          1.7780     1.2820     1.9030 c3         1 QI2       0.145100
     20 NAT          1.7480     0.1980     0.8840 n3         1 QI2      -0.707600
     21 CAU          2.9420    -0.6860     0.9380 c3         1 QI2       0.165800
     22 CAV          4.2910     0.0120     0.6460 c3         1 QI2      -0.076400
     23 CAW          5.4670    -0.9810     0.5300 c3         1 QI2      -0.030100
     24 CAX          6.7870    -0.2740     0.2510 ca         1 QI2      -0.089300
     25 CAY          7.1630     0.0270    -1.0730 ca         1 QI2      -0.083000
     26 CAZ          8.3790     0.6860    -1.3420 ca         1 QI2      -0.110300
     27 CBA          8.7780     1.0070    -2.7770 c3         1 QI2      -0.040800
     28 CBB          7.6340     0.0900     1.3150 ca         1 QI2      -0.087000
     29 CBC          8.8490     0.7470     1.0550 ca         1 QI2      -0.147000
     30 CBD          9.2180     1.0420    -0.2670 ca         1 QI2       0.164000
     31 FBE         10.3910     1.6760    -0.4980 f          1 QI2      -0.183000
     32 HAE         -2.1930    -1.1740     1.4290 hc         1 QI2       0.063700
     33 HAF         -3.4490     0.9080     1.0610 hc         1 QI2       0.064700
     34 HAFA        -3.2170     0.7950    -0.6760 hc         1 QI2       0.064700
     35 HAG         -4.5790    -1.2730    -0.7750 h1         1 QI2       0.044700
     36 HAI         -6.2520    -0.3470    -2.1360 ha         1 QI2       0.123000
     37 HAJ         -8.2240     1.1370    -2.4540 ha         1 QI2       0.133500
     38 HAK         -0.6410     0.7410    -0.3800 hc         1 QI2       0.061700
     39 HAM         -5.7900     1.1640     1.8970 ha         1 QI2       0.123000
     40 HAN         -7.7620     2.6450     1.5580 ha         1 QI2       0.133500
     41 HAQ          0.3600    -1.0630     1.8890 h1         1 QI2       0.031700
     42 HAR         -6.8720    -1.8670     1.1340 h1         1 QI2       0.032033
     43 HARA        -5.7540    -3.0620     0.4300 h1         1 QI2       0.032033
     44 HARB        -5.9230    -2.9290     2.1940 h1         1 QI2       0.032033
     45 HAS          1.7440     0.8650     2.9180 h1         1 QI2       0.030700
     46 HASA         2.6860     1.8910     1.8120 h1         1 QI2       0.030700
     47 HASB         0.9300     1.9670     1.7830 h1         1 QI2       0.030700
     48 HAU          3.0030    -1.1730     1.9210 h1         1 QI2       0.029700
     49 HAV          4.2070     0.5790    -0.2890 hc         1 QI2       0.051700
     50 HAW          5.5380    -1.5640     1.4570 hc         1 QI2       0.047200
     51 HAWA         5.2530    -1.7030    -0.2680 hc         1 QI2       0.047200
     52 HAY          6.5050    -0.2520    -1.8940 ha         1 QI2       0.116000
     53 HBA          8.9040     2.0880    -2.9160 hc         1 QI2       0.047367
     54 HBAA         9.7260     0.5230    -3.0390 hc         1 QI2       0.047367
     55 HBAB         8.0240     0.6680    -3.4970 hc         1 QI2       0.047367
     56 HBB          7.3520    -0.1340     2.3420 ha         1 QI2       0.115000
     57 HBC          9.5040     1.0290     1.8750 ha         1 QI2       0.130000
     58 H27         -2.3690    -4.8100    -0.9200 ho         1 QI2       0.440000
     59 H28         -1.9930    -3.2440     0.8430 hn         1 QI2       0.339500
     60 H29         -0.9630     0.9680     1.3370 hc         1 QI2       0.061700
     61 H30          0.5750    -1.4060     0.1720 h1         1 QI2       0.031700
     62 H31          2.8260    -1.4870     0.1940 h1         1 QI2       0.029700
     63 H32          4.5210     0.7290     1.4420 hc         1 QI2       0.051700
@<TRIPOS>BOND
     1     1     2 1   
     2     1    58 1   
     3     2     3 1   
     4     2    59 1   
     5     3     4 2   
     6     3     5 1   
     7     5     6 1   
     8     5    11 1   
     9     5    32 1   
    10     6     7 1   
    11     6    33 1   
    12     6    34 1   
    13     7     8 1   
    14     7    12 1   
    15     7    35 1   
    16     8     9 ar  
    17     8    13 ar  
    18     9    10 ar  
    19     9    36 1   
    20    10    15 ar  
    21    10    37 1   
    22    11    17 1   
    23    11    38 1   
    24    11    60 1   
    25    12    18 1   
    26    13    14 ar  
    27    13    39 1   
    28    14    15 ar  
    29    14    40 1   
    30    15    16 1   
    31    17    20 1   
    32    17    41 1   
    33    17    61 1   
    34    18    42 1   
    35    18    43 1   
    36    18    44 1   
    37    19    20 1   
    38    19    45 1   
    39    19    46 1   
    40    19    47 1   
    41    20    21 1   
    42    21    22 1   
    43    21    48 1   
    44    21    62 1   
    45    22    23 1   
    46    22    49 1   
    47    22    63 1   
    48    23    24 1   
    49    23    50 1   
    50    23    51 1   
    51    24    25 ar  
    52    24    28 ar  
    53    25    26 ar  
    54    25    52 1   
    55    26    27 1   
    56    26    30 ar  
    57    27    53 1   
    58    27    54 1   
    59    27    55 1   
    60    28    29 ar  
    61    28    56 1   
    62    29    30 ar  
    63    29    57 1   
    64    30    31 1   
@<TRIPOS>SUBSTRUCTURE
     1 QI2         1 TEMP              0 ****  ****    0 ROOT
