@<TRIPOS>MOLECULE
QI3
   43    45     1     0     0
SMALL
bcc


@<TRIPOS>ATOM
      1 C1          -0.5730     3.3870     0.2670 c          1 QI3       0.672100
      2 N1          -0.5260     1.0560    -0.4500 n3         1 QI3      -0.754500
      3 O1           0.3410     3.7640    -0.4390 o          1 QI3      -0.542100
      4 C2          -0.7140     1.9330     0.7030 c5         1 QI3       0.147500
      5 C3           0.4310     1.5230     1.6410 c5         1 QI3      -0.077400
      6 C4           1.4330     0.8300     0.7280 c5         1 QI3       0.146100
      7 O2          -1.5470     5.5020     0.4660 oh         1 QI3      -0.373100
      8 N2          -1.4970     4.1890     0.8160 ns         1 QI3      -0.442400
      9 C5           3.3630    -0.5580     0.9540 ca         1 QI3       0.139100
     10 C6           4.0800    -1.4260     1.7780 ca         1 QI3      -0.179500
     11 C7           5.2350    -2.0340     1.3220 ca         1 QI3      -0.083500
     12 C8           3.8220    -0.3060    -0.3360 ca         1 QI3      -0.179500
     13 C9           4.9840    -0.9160    -0.7920 ca         1 QI3      -0.083500
     14 C10          5.6830    -1.7760     0.0340 ca         1 QI3      -0.006600
     15 CL1          7.1300    -2.5400    -0.5420 cl         1 QI3      -0.109400
     16 O3          -1.2140     0.1500    -2.6580 o          1 QI3      -0.597300
     17 S1          -1.7690     0.7840    -1.4780 sy         1 QI3       1.332200
     18 C11         -2.8170    -0.3900    -0.6680 ca         1 QI3      -0.311500
     19 C12         -2.5330    -1.7460    -0.7820 ca         1 QI3      -0.027000
     20 C13         -3.3160    -2.6650    -0.1060 ca         1 QI3      -0.142500
     21 O4          -2.4930     2.0400    -1.5750 o          1 QI3      -0.597300
     22 C14         -3.8810     0.0570     0.1050 ca         1 QI3      -0.027000
     23 C15         -4.6670    -0.8630     0.7790 ca         1 QI3      -0.142500
     24 C16         -4.3750    -2.2150     0.6700 ca         1 QI3       0.076400
     25 CL2         -5.3520    -3.3610     1.5120 cl         1 QI3      -0.089400
     26 O5           2.2530    -0.0130     1.4990 os         1 QI3      -0.321900
     27 C17          0.5330     0.0780    -0.2540 c5         1 QI3       0.187800
     28 H1          -1.6730     1.7580     1.2010 h1         1 QI3       0.057700
     29 H2           0.8580     2.3670     2.1800 hc         1 QI3       0.072700
     30 H3           0.0540     0.8090     2.3760 hc         1 QI3       0.072700
     31 H4           2.0290     1.5760     0.1930 h1         1 QI3       0.085700
     32 H5           3.7280    -1.6240     2.7820 ha         1 QI3       0.147500
     33 H6           5.7790    -2.7070     1.9700 ha         1 QI3       0.149500
     34 H7           3.3040     0.3600    -1.0110 ha         1 QI3       0.147500
     35 H8           5.3290    -0.7140    -1.7970 ha         1 QI3       0.149500
     36 H9          -1.7170    -2.1000    -1.3970 ha         1 QI3       0.156500
     37 H10         -3.1030    -3.7220    -0.1900 ha         1 QI3       0.154500
     38 H11         -4.1190     1.1090     0.1800 ha         1 QI3       0.156500
     39 H12         -5.5020    -0.5260     1.3770 ha         1 QI3       0.154500
     40 H13          0.1740    -0.8490     0.2120 h1         1 QI3       0.069700
     41 H14          1.0150    -0.1650    -1.1980 h1         1 QI3       0.069700
     42 H15         -1.1230     5.9880     1.1850 ho         1 QI3       0.403000
     43 H16         -2.3440     3.8300     1.2340 hn         1 QI3       0.334500
@<TRIPOS>BOND
     1     1     3 2   
     2     1     4 1   
     3     1     8 1   
     4     2     4 1   
     5     2    17 1   
     6     2    27 1   
     7     4     5 1   
     8     4    28 1   
     9     5     6 1   
    10     5    29 1   
    11     5    30 1   
    12     6    26 1   
    13     6    27 1   
    14     6    31 1   
    15     7     8 1   
    16     7    42 1   
    17     8    43 1   
    18     9    10 ar  
    19     9    12 ar  
    20     9    26 1   
    21    10    11 ar  
    22    10    32 1   
    23    11    14 ar  
    24    11    33 1   
    25    12    13 ar  
    26    12    34 1   
    27    13    14 ar  
    28    13    35 1   
    29    14    15 1   
    30    16    17 2   
    31    17    18 1   
    32    17    21 2   
    33    18    19 ar  
    34    18    22 ar  
    35    19    20 ar  
    36    19    36 1   
    37    20    24 ar  
    38    20    37 1   
    39    22    23 ar  
    40    22    38 1   
    41    23    24 ar  
    42    23    39 1   
    43    24    25 1   
    44    27    40 1   
    45    27    41 1   
@<TRIPOS>SUBSTRUCTURE
     1 QI3         1 TEMP              0 ****  ****    0 ROOT
