@<TRIPOS>MOLECULE
QI3
   43    45     1     0     0
SMALL
No Charge or Current Charge


@<TRIPOS>ATOM
      1 C1          -0.8270     4.1380     0.1140 c          1 QI3       0.605100
      2 N1          -0.6460     1.5900    -0.4090 n3         1 QI3      -0.754500
      3 O1          -0.7460     4.8740    -0.8660 o          1 QI3      -0.542100
      4 C2          -0.1000     2.7560     0.3380 c5         1 QI3       0.147500
      5 C3           1.3310     2.7980    -0.2550 c5         1 QI3      -0.077400
      6 C4           1.7520     1.3040    -0.1830 c5         1 QI3       0.169300
      7 O2          -2.4910     5.5750     1.2420 oh         1 QI3      -0.412100
      8 N2          -1.5570     4.4680     1.2550 ns         1 QI3      -0.375400
      9 C5           2.7650    -0.1920     1.3870 ca         1 QI3       0.139100
     10 C6           2.9660    -0.5260     2.7370 ca         1 QI3      -0.161500
     11 C7           3.3810    -1.8180     3.1070 ca         1 QI3      -0.065500
     12 C8           3.0080    -1.1760     0.3920 ca         1 QI3      -0.161500
     13 C9           3.4230    -2.4690     0.7660 ca         1 QI3      -0.065500
     14 C10          3.6060    -2.7890     2.1200 ca         1 QI3       0.085000
     15 Cl1          4.1250    -4.4060     2.5790 cl         1 QI3      -0.201000
     16 O3          -2.9680     1.9490    -1.3590 o          1 QI3      -0.526500
     17 S1          -2.2980     1.2060    -0.2870 sy         1 QI3       1.190600
     18 C11         -2.3100    -0.5480    -0.7080 ca         1 QI3      -0.311500
     19 C12         -2.3010    -0.9450    -2.0610 ca         1 QI3      -0.009000
     20 C13         -2.2890    -2.3110    -2.3910 ca         1 QI3      -0.124500
     21 O4          -2.6540     1.3610     1.1270 o          1 QI3      -0.526500
     22 C14         -2.3080    -1.5250     0.3120 ca         1 QI3      -0.009000
     23 C15         -2.2960    -2.8890    -0.0270 ca         1 QI3      -0.124500
     24 C16         -2.2870    -3.2800    -1.3750 ca         1 QI3       0.168000
     25 Cl2         -2.2690    -4.9880    -1.7920 cl         1 QI3      -0.181000
     26 O5           2.3540     1.1130     1.1330 os         1 QI3      -0.345100
     27 C17          0.3840     0.5300    -0.2560 c5         1 QI3       0.187800
     28 H1          -0.0640     2.5490     1.4170 h1         1 QI3       0.057700
     29 H2           1.3240     3.1450    -1.2940 hc         1 QI3       0.072700
     30 H3           2.0020     3.4590     0.3060 hc         1 QI3       0.072700
     31 H4           2.4620     1.0580    -0.9830 h1         1 QI3       0.085700
     32 H5           2.7920     0.2230     3.5060 ha         1 QI3       0.129500
     33 H6           3.5280    -2.0660     4.1560 ha         1 QI3       0.131500
     34 H7           2.8960    -0.9740    -0.6680 ha         1 QI3       0.129500
     35 H8           3.6070    -3.2220     0.0040 ha         1 QI3       0.131500
     36 H9          -2.2940    -0.2010    -2.8570 ha         1 QI3       0.138500
     37 H10         -2.2800    -2.6190    -3.4330 ha         1 QI3       0.136500
     38 H11         -2.3100    -1.2360     1.3620 ha         1 QI3       0.138500
     39 H12         -2.2920    -3.6430     0.7560 ha         1 QI3       0.136500
     40 H13          0.2140    -0.0530     0.6600 h1         1 QI3       0.069700
     41 H14          0.3720    -0.1710    -1.1010 h1         1 QI3       0.069700
     42 H15         -2.2730     6.0750     2.0640 ho         1 QI3       0.442000
     43 H16         -1.7270     3.7500     1.9590 hn         1 QI3       0.334500
@<TRIPOS>BOND
     1     1     3 2   
     2     1     4 1   
     3     1     8 1   
     4     2     4 1   
     5     2    17 1   
     6     2    27 1   
     7     4     5 1   
     8     4    28 1   
     9     5     6 1   
    10     5    29 1   
    11     5    30 1   
    12     6    26 1   
    13     6    27 1   
    14     6    31 1   
    15     7     8 1   
    16     7    42 1   
    17     8    43 1   
    18     9    10 ar  
    19     9    12 ar  
    20     9    26 1   
    21    10    11 ar  
    22    10    32 1   
    23    11    14 ar  
    24    11    33 1   
    25    12    13 ar  
    26    12    34 1   
    27    13    14 ar  
    28    13    35 1   
    29    14    15 1   
    30    16    17 2   
    31    17    18 1   
    32    17    21 2   
    33    18    19 ar  
    34    18    22 ar  
    35    19    20 ar  
    36    19    36 1   
    37    20    24 ar  
    38    20    37 1   
    39    22    23 ar  
    40    22    38 1   
    41    23    24 ar  
    42    23    39 1   
    43    24    25 1   
    44    27    40 1   
    45    27    41 1   
@<TRIPOS>SUBSTRUCTURE
     1 QI3         1 TEMP              0 ****  ****    0 ROOT
