@<TRIPOS>MOLECULE
QI4
   37    39     1     0     0
SMALL
abcg2


@<TRIPOS>ATOM
      1 N1         -16.4880     4.8500    26.6750 nb         1 QI4      -0.654000
      2 C4         -17.8140     4.8820    26.9630 ca         1 QI4       0.322900
      3 C5         -15.9690     5.8900    26.0630 ca         1 QI4       0.363900
      4 C6         -16.7100     7.0320    25.6770 ca         1 QI4      -0.093000
      5 C7         -16.1130     8.1270    25.0100 ca         1 QI4      -0.082000
      6 C8         -16.8750     9.2050    24.6400 ca         1 QI4      -0.108000
      7 C10        -18.8660     8.1800    25.5690 ca         1 QI4      -0.091000
      8 C13        -22.8730     5.7850    30.5880 ca         1 QI4      -0.084000
      9 C15        -22.5490     3.6170    31.5790 ca         1 QI4       0.126000
     10 C17        -21.7260     4.0760    29.3590 ca         1 QI4      -0.093000
     11 C16        -21.8860     3.2010    30.4250 ca         1 QI4       0.125000
     12 CL         -22.7720     2.5440    32.9300 cl         1 QI4      -0.175000
     13 C14        -23.0410     4.9130    31.6550 ca         1 QI4      -0.092000
     14 C12        -22.2190     5.3770    29.4270 ca         1 QI4      -0.066300
     15 C1         -22.0600     6.3290    28.2550 c3         1 QI4      -0.098400
     16 C          -22.8840     5.8840    27.0410 c3         1 QI4      -0.089100
     17 C2         -20.5690     6.5550    27.9940 c          1 QI4       0.601100
     18 O          -19.9150     7.3100    28.7060 o          1 QI4      -0.573100
     19 C3         -18.6360     5.9300    26.6410 ca         1 QI4      -0.082000
     20 C11        -18.1030     7.0590    25.9680 ca         1 QI4      -0.002000
     21 C9         -18.2600     9.2260    24.9200 ca         1 QI4      -0.090000
     22 H1         -18.2220     4.0190    27.4770 h4         1 QI4       0.024100
     23 H2         -14.9050     5.8590    25.8440 h4         1 QI4       0.022100
     24 H3         -15.0520     8.0950    24.7970 ha         1 QI4       0.118000
     25 H4         -16.4210    10.0440    24.1290 ha         1 QI4       0.118000
     26 H5         -19.9270     8.2040    25.7760 ha         1 QI4       0.120000
     27 H6         -23.2600     6.7930    30.6600 ha         1 QI4       0.125000
     28 H7         -21.2070     3.7260    28.4770 ha         1 QI4       0.127000
     29 H8         -23.5540     5.2340    32.5510 ha         1 QI4       0.136000
     30 H9         -22.4230     7.3050    28.5790 hc         1 QI4       0.085700
     31 H10        -23.9410     5.8800    27.3070 hc         1 QI4       0.044700
     32 H11        -22.7420     6.5670    26.2030 hc         1 QI4       0.044700
     33 H12        -22.6270     4.8730    26.7180 hc         1 QI4       0.044700
     34 H14        -18.8490    10.0820    24.6140 ha         1 QI4       0.116000
     35 N          -20.0190     5.8650    26.9660 ns         1 QI4      -0.172000
     36 CL1        -21.2440     1.5890    30.2870 cl         1 QI4      -0.177000
     37 H13        -20.5930     5.2240    26.4420 hn         1 QI4       0.159000
@<TRIPOS>BOND
     1     1     2 ar  
     2     1     3 ar  
     3     2    19 ar  
     4     2    22 1   
     5     3     4 ar  
     6     3    23 1   
     7     4     5 ar  
     8     4    20 ar  
     9     5     6 ar  
    10     5    24 1   
    11     6    21 ar  
    12     6    25 1   
    13     7    20 ar  
    14     7    21 ar  
    15     7    26 1   
    16     8    13 ar  
    17     8    14 ar  
    18     8    27 1   
    19     9    11 ar  
    20     9    12 1   
    21     9    13 ar  
    22    10    11 ar  
    23    10    14 ar  
    24    10    28 1   
    25    11    36 1   
    26    13    29 1   
    27    14    15 1   
    28    15    16 1   
    29    15    17 1   
    30    15    30 1   
    31    16    31 1   
    32    16    32 1   
    33    16    33 1   
    34    17    18 2   
    35    17    35 1   
    36    19    20 ar  
    37    19    35 1   
    38    21    34 1   
    39    35    37 1   
@<TRIPOS>SUBSTRUCTURE
     1 QI4         1 TEMP              0 ****  ****    0 ROOT
