@<TRIPOS>MOLECULE
QI4
   37    39     1     0     0
SMALL
No Charge or Current Charge


@<TRIPOS>ATOM
      1 N1         -16.3320     5.3260    27.6150 nb         1 QI4      -0.654000
      2 C4         -17.6640     5.3060    27.8470 ca         1 QI4       0.322900
      3 C5         -15.8710     6.1980    26.6900 ca         1 QI4       0.363900
      4 C6         -16.7110     7.0610    25.9580 ca         1 QI4      -0.093000
      5 C7         -16.1690     7.9290    24.9900 ca         1 QI4      -0.082000
      6 C8         -17.0160     8.7670    24.2470 ca         1 QI4      -0.108000
      7 C10        -18.9470     7.8710    25.4300 ca         1 QI4      -0.091000
      8 C13        -22.1480     5.6500    30.6430 ca         1 QI4      -0.084000
      9 C15        -22.2040     3.2740    31.1740 ca         1 QI4       0.126000
     10 C17        -22.3370     4.0150    28.8540 ca         1 QI4      -0.093000
     11 C16        -22.3110     2.9760    29.8010 ca         1 QI4       0.125000
     12 Cl         -22.1670     1.9930    32.3870 cl         1 QI4      -0.175000
     13 C14        -22.1220     4.6120    31.5900 ca         1 QI4      -0.092000
     14 C12        -22.2600     5.3650    29.2670 ca         1 QI4      -0.066300
     15 C1         -22.2690     6.5310    28.2670 c3         1 QI4      -0.098400
     16 C          -23.0390     6.2490    26.9500 c3         1 QI4      -0.089100
     17 C2         -20.8370     7.0250    27.9830 c          1 QI4       0.601100
     18 O          -20.4930     8.1840    28.1890 o          1 QI4      -0.573100
     19 C3         -18.5870     6.1460    27.1890 ca         1 QI4      -0.082000
     20 C11        -18.1030     7.0370    26.1990 ca         1 QI4      -0.002000
     21 C9         -18.4030     8.7330    24.4630 ca         1 QI4      -0.090000
     22 H1         -18.0050     4.6000    28.6040 h4         1 QI4       0.024100
     23 H2         -14.7950     6.1940    26.5220 h4         1 QI4       0.022100
     24 H3         -15.0960     7.9500    24.8080 ha         1 QI4       0.118000
     25 H4         -16.5980     9.4360    23.4970 ha         1 QI4       0.118000
     26 H5         -20.0240     7.8550    25.5610 ha         1 QI4       0.120000
     27 H6         -22.0810     6.6820    30.9830 ha         1 QI4       0.125000
     28 H7         -22.4150     3.7550    27.8030 ha         1 QI4       0.127000
     29 H8         -22.0370     4.8450    32.6490 ha         1 QI4       0.136000
     30 H9         -22.7900     7.3750    28.7370 hc         1 QI4       0.085700
     31 H10        -24.0520     5.8860    27.1650 hc         1 QI4       0.044700
     32 H11        -23.1290     7.1670    26.3570 hc         1 QI4       0.044700
     33 H12        -22.5260     5.5030    26.3310 hc         1 QI4       0.044700
     34 H14        -19.0580     9.3740    23.8780 ha         1 QI4       0.116000
     35 N          -19.9590     6.0450    27.5470 ns         1 QI4      -0.172000
     36 Cl1        -22.4090     1.3060    29.2370 cl         1 QI4      -0.177000
     37 H13        -20.3480     5.1110    27.4990 hn         1 QI4       0.159000
@<TRIPOS>BOND
     1     1     2 ar  
     2     1     3 ar  
     3     2    19 ar  
     4     2    22 1   
     5     3     4 ar  
     6     3    23 1   
     7     4     5 ar  
     8     4    20 ar  
     9     5     6 ar  
    10     5    24 1   
    11     6    21 ar  
    12     6    25 1   
    13     7    20 ar  
    14     7    21 ar  
    15     7    26 1   
    16     8    13 ar  
    17     8    14 ar  
    18     8    27 1   
    19     9    11 ar  
    20     9    12 1   
    21     9    13 ar  
    22    10    11 ar  
    23    10    14 ar  
    24    10    28 1   
    25    11    36 1   
    26    13    29 1   
    27    14    15 1   
    28    15    16 1   
    29    15    17 1   
    30    15    30 1   
    31    16    31 1   
    32    16    32 1   
    33    16    33 1   
    34    17    18 2   
    35    17    35 1   
    36    19    20 ar  
    37    19    35 1   
    38    21    34 1   
    39    35    37 1   
@<TRIPOS>SUBSTRUCTURE
     1 QI4         1 TEMP              0 ****  ****    0 ROOT
