@<TRIPOS>MOLECULE
QI5
   17    17     1     0     0
SMALL
No Charge or Current Charge


@<TRIPOS>ATOM
      1 C10        -31.1410    -3.6980     8.6580 ca         1 QI5       0.095500
      2 C02        -28.5010    -4.6390     8.4760 ca         1 QI5       0.204500
      3 C03        -28.9380    -3.6470     7.5550 ca         1 QI5      -0.203600
      4 C04        -28.0340    -3.0860     6.4730 c          1 QI5       0.609700
      5 C08        -30.2790    -3.1900     7.6670 ca         1 QI5       0.204500
      6 C12        -30.6860    -4.6730     9.5560 ca         1 QI5       0.162000
      7 C14        -29.3690    -5.1440     9.4640 ca         1 QI5       0.095500
      8 F01        -27.2510    -5.1520     8.4180 f          1 QI5      -0.132000
      9 F09        -30.7610    -2.2300     6.8430 f          1 QI5      -0.132000
     10 F11        -32.4130    -3.2400     8.7500 f          1 QI5      -0.128000
     11 F13        -31.5170    -5.1610    10.5080 f          1 QI5      -0.125000
     12 F15        -28.9320    -6.0920    10.3280 f          1 QI5      -0.128000
     13 N05        -26.6640    -3.2490     6.6150 ns         1 QI5      -0.361400
     14 O06        -25.7460    -2.6220     5.6860 oh         1 QI5      -0.430100
     15 O07        -28.4590    -2.5160     5.4770 o          1 QI5      -0.582100
     16 H1         -26.2690    -3.6090     7.4820 hn         1 QI5       0.370500
     17 H2         -26.3450    -2.0460     5.1490 ho         1 QI5       0.479000
@<TRIPOS>BOND
     1     1     5 ar  
     2     1     6 ar  
     3     1    10 1   
     4     2     3 ar  
     5     2     7 ar  
     6     2     8 1   
     7     3     4 1   
     8     3     5 ar  
     9     4    13 1   
    10     4    15 2   
    11     5     9 1   
    12     6     7 ar  
    13     6    11 1   
    14     7    12 1   
    15    13    14 1   
    16    13    16 1   
    17    14    17 1   
@<TRIPOS>SUBSTRUCTURE
     1 QI5         1 TEMP              0 ****  ****    0 ROOT
