@<TRIPOS>MOLECULE
QI5
   17    17     1     0     0
SMALL
abcg2


@<TRIPOS>ATOM
      1 C10        -30.9680    -3.5470     8.7610 ca         1 QI5       0.095500
      2 C02        -28.5850    -4.8760     8.3190 ca         1 QI5       0.204500
      3 C03        -28.8900    -3.7690     7.5380 ca         1 QI5      -0.203600
      4 C04        -27.9870    -3.3080     6.4310 c          1 QI5       0.609700
      5 C08        -30.0940    -3.1180     7.7760 ca         1 QI5       0.204500
      6 C12        -30.6430    -4.6600     9.5230 ca         1 QI5       0.162000
      7 C14        -29.4480    -5.3270     9.3060 ca         1 QI5       0.095500
      8 F01        -27.4470    -5.5490     8.1170 f          1 QI5      -0.132000
      9 F09        -30.4240    -2.0410     7.0540 f          1 QI5      -0.132000
     10 F11        -32.1090    -2.8950     8.9870 f          1 QI5      -0.128000
     11 F13        -31.4830    -5.0890    10.4630 f          1 QI5      -0.125000
     12 F15        -29.1360    -6.3950    10.0440 f          1 QI5      -0.128000
     13 N05        -26.8490    -2.7480     6.8340 ns         1 QI5      -0.361400
     14 O06        -25.9580    -2.2700     5.8880 oh         1 QI5      -0.430100
     15 O07        -28.2670    -3.4340     5.2380 o          1 QI5      -0.582100
     16 H1         -26.5960    -2.5190     7.7840 hn         1 QI5       0.370500
     17 H2         -26.4200    -2.4470     5.0430 ho         1 QI5       0.479000
@<TRIPOS>BOND
     1     1     5 ar  
     2     1     6 ar  
     3     1    10 1   
     4     2     3 ar  
     5     2     7 ar  
     6     2     8 1   
     7     3     4 1   
     8     3     5 ar  
     9     4    13 1   
    10     4    15 2   
    11     5     9 1   
    12     6     7 ar  
    13     6    11 1   
    14     7    12 1   
    15    13    14 1   
    16    13    16 1   
    17    14    17 1   
@<TRIPOS>SUBSTRUCTURE
     1 QI5         1 TEMP              0 ****  ****    0 ROOT
