@<TRIPOS>MOLECULE
QI6
   22    24     1     0     0
SMALL
abcg2


@<TRIPOS>ATOM
      1 C1         -17.0130   -12.8220    -0.4450 cc         1 QI6      -0.145000
      2 N2         -17.0190   -11.5730    -1.0060 na         1 QI6       0.426200
      3 C3         -19.3690   -12.9300    -1.0300 ca         1 QI6      -0.099000
      4 C4         -20.6010   -13.6000    -1.0200 ca         1 QI6      -0.076000
      5 C5         -20.7060   -14.8640    -0.4720 ca         1 QI6      -0.113000
      6 C6         -19.5810   -15.4860     0.0830 ca         1 QI6      -0.084000
      7 C8         -15.7140   -13.0240     0.0150 cd         1 QI6      -0.354600
      8 C          -19.1960   -11.6020    -1.6110 cc         1 QI6       0.558900
      9 C7         -18.3630   -14.8380     0.0990 ca         1 QI6      -0.094000
     10 C2         -18.2430   -13.5540    -0.4520 ca         1 QI6       0.028000
     11 C9         -15.0340   -11.8490    -0.3190 cd         1 QI6       0.338500
     12 N3         -15.8270   -10.9640    -0.9430 nc         1 QI6      -0.511100
     13 N1         -18.0610   -10.9530    -1.6080 nd         1 QI6      -0.525800
     14 H1         -21.4850   -13.1320    -1.4300 ha         1 QI6       0.115000
     15 H2         -21.6610   -15.3730    -0.4720 ha         1 QI6       0.120000
     16 H3         -19.6690   -16.4780     0.5090 ha         1 QI6       0.120000
     17 H5         -15.3300   -13.8940     0.5190 ha         1 QI6       0.213000
     18 H6         -20.0460   -10.1260    -2.6890 hn         1 QI6       0.475000
     19 H7         -20.9970   -11.5160    -2.5710 hn         1 QI6       0.475000
     20 H8         -17.4940   -15.3120     0.5360 ha         1 QI6       0.127000
     21 H9         -14.0010   -11.5990    -0.1360 h4         1 QI6       0.048800
     22 N          -20.2710   -10.9530    -2.1560 nv         1 QI6      -1.042900
@<TRIPOS>BOND
     1     1     2 1   
     2     1     7 2   
     3     1    10 1   
     4     2    12 1   
     5     2    13 1   
     6     3     4 ar  
     7     3     8 1   
     8     3    10 ar  
     9     4     5 ar  
    10     4    14 1   
    11     5     6 ar  
    12     5    15 1   
    13     6     9 ar  
    14     6    16 1   
    15     7    11 1   
    16     7    17 1   
    17     8    13 2   
    18     8    22 1   
    19     9    10 ar  
    20     9    20 1   
    21    11    12 2   
    22    11    21 1   
    23    18    22 1   
    24    19    22 1   
@<TRIPOS>SUBSTRUCTURE
     1 QI6         1 TEMP              0 ****  ****    0 ROOT
