@<TRIPOS>MOLECULE
QI6
   22    24     1     0     0
SMALL
No Charge or Current Charge


@<TRIPOS>ATOM
      1 C1         -17.0640   -12.7570    -0.4810 cc         1 QI6      -0.145000
      2 N2         -17.0270   -11.4950    -1.0300 na         1 QI6       0.426200
      3 C3         -19.3640   -12.9300    -1.0150 ca         1 QI6      -0.099000
      4 C4         -20.6010   -13.6180    -1.0160 ca         1 QI6      -0.076000
      5 C5         -20.6960   -14.9070    -0.4580 ca         1 QI6      -0.113000
      6 C6         -19.5650   -15.5220     0.1090 ca         1 QI6      -0.084000
      7 C8         -15.8130   -13.0260    -0.0210 cd         1 QI6      -0.354600
      8 C          -19.1820   -11.5650    -1.5850 cc         1 QI6       0.558900
      9 C7         -18.3350   -14.8440     0.1210 ca         1 QI6      -0.094000
     10 C2         -18.2520   -13.5580    -0.4390 ca         1 QI6       0.028000
     11 C9         -15.0600   -11.8700    -0.3320 cd         1 QI6       0.338500
     12 N3         -15.7740   -10.9310    -0.9420 nc         1 QI6      -0.511100
     13 N1         -18.0750   -10.8270    -1.6130 nd         1 QI6      -0.525800
     14 H1         -21.4940   -13.1660    -1.4400 ha         1 QI6       0.115000
     15 H2         -21.6500   -15.4300    -0.4630 ha         1 QI6       0.120000
     16 H3         -19.6430   -16.5180     0.5390 ha         1 QI6       0.120000
     17 H5         -15.4540   -13.9220     0.4760 ha         1 QI6       0.213000
     18 H6         -19.9740   -10.1150    -2.7220 hn         1 QI6       0.475000
     19 H7         -20.9720   -11.5070    -2.5420 hn         1 QI6       0.475000
     20 H8         -17.4590   -15.3130     0.5630 ha         1 QI6       0.127000
     21 H9         -14.0120   -11.6870    -0.1290 h4         1 QI6       0.048800
     22 N          -20.2160   -10.9360    -2.1780 nv         1 QI6      -1.042900
@<TRIPOS>BOND
     1     1     2 1   
     2     1     7 2   
     3     1    10 1   
     4     2    12 1   
     5     2    13 1   
     6     3     4 ar  
     7     3     8 1   
     8     3    10 ar  
     9     4     5 ar  
    10     4    14 1   
    11     5     6 ar  
    12     5    15 1   
    13     6     9 ar  
    14     6    16 1   
    15     7    11 1   
    16     7    17 1   
    17     8    13 2   
    18     8    22 1   
    19     9    10 ar  
    20     9    20 1   
    21    11    12 2   
    22    11    21 1   
    23    18    22 1   
    24    19    22 1   
@<TRIPOS>SUBSTRUCTURE
     1 QI6         1 TEMP              0 ****  ****    0 ROOT
