@<TRIPOS>MOLECULE
QI7
   50    54     1     0     0
SMALL
abcg2


@<TRIPOS>ATOM
      1 N1         -24.7200     9.1440    32.3030 na         1 QI7      -0.308500
      2 N3         -19.8660     5.2330    26.4880 ns         1 QI7      -0.176000
      3 C4         -22.8040     8.5690    30.7820 c3         1 QI7       0.218500
      4 C5         -24.2670     8.6640    31.1160 cc         1 QI7       0.363800
      5 C6         -26.0960     9.1330    32.2720 cc         1 QI7      -0.222000
      6 C7         -26.4210     8.6340    31.0410 cd         1 QI7       0.233900
      7 C8         -22.2300     7.8530    28.4850 c6         1 QI7       0.240800
      8 C10        -21.7570     5.4320    27.9860 c6         1 QI7      -0.080400
      9 C13        -17.8160     4.2300    25.7140 ca         1 QI7       0.310900
     10 C15        -16.6400     6.6530    25.2380 ca         1 QI7      -0.091000
     11 C17        -16.6730     9.0660    25.1940 ca         1 QI7      -0.107000
     12 C20        -17.9670     6.6370    25.7520 ca         1 QI7      -0.003000
     13 C21        -22.0560     5.1440    29.4340 ca         1 QI7      -0.142300
     14 C22        -21.9870     3.8380    29.8980 ca         1 QI7      -0.045000
     15 C11        -20.2610     5.6080    27.7330 c          1 QI7       0.597100
     16 C12        -18.5400     5.3610    25.9980 ca         1 QI7      -0.073000
     17 C19        -18.6340     7.8650    25.9630 ca         1 QI7      -0.087000
     18 C18        -17.9960     9.0490    25.6890 ca         1 QI7      -0.094000
     19 C16        -16.0080     7.8900    24.9700 ca         1 QI7      -0.083000
     20 C14        -16.0010     5.4150    24.9900 ca         1 QI7       0.357900
     21 N4         -16.5580     4.2460    25.2060 nb         1 QI7      -0.652000
     22 C3         -22.4240     6.1910    30.3120 ca         1 QI7       0.383000
     23 C2         -22.7260     5.8520    31.6470 ca         1 QI7      -0.185000
     24 C1         -22.6440     4.5440    32.0990 ca         1 QI7      -0.048000
     25 C          -22.2710     3.5380    31.2220 ca         1 QI7       0.069000
     26 CL         -22.1690     1.8750    31.7820 cl         1 QI7      -0.222000
     27 C9         -22.5150     6.6960    27.5450 c6         1 QI7      -0.085400
     28 N          -22.4910     7.4920    29.8740 nh         1 QI7      -0.819400
     29 N2         -25.2740     8.3450    30.3270 nd         1 QI7      -0.663000
     30 H1         -24.1480     9.4420    33.0780 hn         1 QI7       0.349000
     31 H2         -20.5300     4.7450    25.9070 hn         1 QI7       0.155000
     32 H3         -22.2310     8.4800    31.7100 h1         1 QI7       0.057700
     33 H4         -22.4810     9.5000    30.3140 h1         1 QI7       0.057700
     34 H5         -26.6910     9.4640    33.1050 h4         1 QI7       0.159000
     35 H6         -27.4030     8.4620    30.6300 h4         1 QI7       0.040100
     36 H7         -21.1920     8.1870    28.3700 h1         1 QI7       0.049700
     37 H8         -22.8740     8.6930    28.2270 h1         1 QI7       0.049700
     38 H9         -22.1040     4.5920    27.3820 hc         1 QI7       0.062700
     39 H11        -16.1920    10.0140    24.9890 ha         1 QI7       0.117000
     40 H12        -21.7070     3.0490    29.2110 ha         1 QI7       0.120000
     41 H13        -19.6470     7.8680    26.3350 ha         1 QI7       0.119000
     42 H14        -18.5140     9.9860    25.8510 ha         1 QI7       0.114000
     43 H15        -14.9960     7.8860    24.5820 ha         1 QI7       0.118000
     44 H16        -14.9890     5.4200    24.5930 h4         1 QI7       0.021100
     45 H17        -23.0360     6.6120    32.3480 ha         1 QI7       0.112000
     46 H18        -22.8790     4.3150    33.1300 ha         1 QI7       0.124000
     47 H19        -22.2410     6.9770    26.5280 hc         1 QI7       0.063200
     48 H20        -23.5830     6.4720    27.5540 hc         1 QI7       0.063200
     49 O          -19.4910     6.0860    28.5580 o          1 QI7      -0.564100
     50 H10        -18.2550     3.2550    25.8940 h4         1 QI7       0.022100
@<TRIPOS>BOND
     1     1     4 1   
     2     1     5 1   
     3     1    30 1   
     4     2    15 1   
     5     2    16 1   
     6     2    31 1   
     7     3     4 1   
     8     3    28 1   
     9     3    32 1   
    10     3    33 1   
    11     4    29 2   
    12     5     6 2   
    13     5    34 1   
    14     6    29 1   
    15     6    35 1   
    16     7    27 1   
    17     7    28 1   
    18     7    36 1   
    19     7    37 1   
    20     8    13 1   
    21     8    15 1   
    22     8    27 1   
    23     8    38 1   
    24     9    16 ar  
    25     9    21 ar  
    26     9    50 1   
    27    10    12 ar  
    28    10    19 ar  
    29    10    20 ar  
    30    11    18 ar  
    31    11    19 ar  
    32    11    39 1   
    33    12    16 ar  
    34    12    17 ar  
    35    13    14 ar  
    36    13    22 ar  
    37    14    25 ar  
    38    14    40 1   
    39    15    49 2   
    40    17    18 ar  
    41    17    41 1   
    42    18    42 1   
    43    19    43 1   
    44    20    21 ar  
    45    20    44 1   
    46    22    23 ar  
    47    22    28 1   
    48    23    24 ar  
    49    23    45 1   
    50    24    25 ar  
    51    24    46 1   
    52    25    26 1   
    53    27    47 1   
    54    27    48 1   
@<TRIPOS>SUBSTRUCTURE
     1 QI7         1 TEMP              0 ****  ****    0 ROOT
