@<TRIPOS>MOLECULE
QI7
   50    54     1     0     0
SMALL
No Charge or Current Charge


@<TRIPOS>ATOM
      1 N1         -25.5140     7.9100    30.6630 na         1 QI7      -0.308500
      2 N3         -19.8450     5.2550    26.6020 ns         1 QI7      -0.176000
      3 C4         -23.1830     8.9640    30.6670 c3         1 QI7       0.218500
      4 C5         -24.6310     8.8520    31.1310 cc         1 QI7       0.363800
      5 C6         -26.7230     8.1010    31.2990 cc         1 QI7      -0.222000
      6 C7         -26.5220     9.1660    32.1390 cd         1 QI7       0.233900
      7 C8         -22.3450     8.0300    28.4570 c6         1 QI7       0.240800
      8 C10        -21.6930     5.5910    28.2160 c6         1 QI7      -0.080400
      9 C13        -18.0500     4.0380    25.5030 ca         1 QI7       0.310900
     10 C15        -16.5870     6.3230    25.0670 ca         1 QI7      -0.091000
     11 C17        -16.2710     8.7370    25.1610 ca         1 QI7      -0.107000
     12 C20        -17.8420     6.4510    25.7030 ca         1 QI7      -0.003000
     13 C21        -21.9010     5.4430    29.7280 ca         1 QI7      -0.142300
     14 C22        -21.6330     4.1990    30.3340 ca         1 QI7      -0.045000
     15 C11        -20.1980     5.7560    27.8450 c          1 QI7       0.597100
     16 C12        -18.5840     5.2660    25.9460 ca         1 QI7      -0.073000
     17 C19        -18.3130     7.7400    26.0400 ca         1 QI7      -0.087000
     18 C18        -17.5270     8.8750    25.7730 ca         1 QI7      -0.094000
     19 C16        -15.8010     7.4630    24.8040 ca         1 QI7      -0.083000
     20 C14        -16.1340     5.0440    24.6880 ca         1 QI7       0.357900
     21 N4         -16.8510     3.9150    24.8910 nb         1 QI7      -0.652000
     22 C3         -22.3480     6.5400    30.5110 ca         1 QI7       0.383000
     23 C2         -22.5200     6.3480    31.9000 ca         1 QI7      -0.185000
     24 C1         -22.2520     5.1040    32.4980 ca         1 QI7      -0.048000
     25 C          -21.8090     4.0310    31.7140 ca         1 QI7       0.069000
     26 Cl         -21.4720     2.4740    32.4610 cl         1 QI7      -0.222000
     27 C9         -22.5520     6.7400    27.6410 c6         1 QI7      -0.085400
     28 N          -22.6300     7.8020    29.9000 nh         1 QI7      -0.819400
     29 N2         -25.2240     9.6280    32.0300 nd         1 QI7      -0.663000
     30 H1         -25.2830     7.2040    29.9730 hn         1 QI7       0.349000
     31 H2         -20.5930     4.8080    26.0860 hn         1 QI7       0.155000
     32 H3         -22.5520     9.1550    31.5450 h1         1 QI7       0.057700
     33 H4         -23.1110     9.8750    30.0570 h1         1 QI7       0.057700
     34 H5         -27.6030     7.4930    31.1210 h4         1 QI7       0.159000
     35 H6         -27.2360     9.6250    32.8130 h4         1 QI7       0.040100
     36 H7         -21.3120     8.3860    28.3330 h1         1 QI7       0.049700
     37 H8         -23.0090     8.8080    28.0510 h1         1 QI7       0.049700
     38 H9         -22.0490     4.6980    27.6820 hc         1 QI7       0.062700
     39 H11        -15.6660     9.6170    24.9560 ha         1 QI7       0.117000
     40 H12        -21.2890     3.3600    29.7330 ha         1 QI7       0.120000
     41 H13        -19.2870     7.8830    26.4960 ha         1 QI7       0.119000
     42 H14        -17.8950     9.8640    26.0370 ha         1 QI7       0.114000
     43 H15        -14.8320     7.3630    24.3180 ha         1 QI7       0.118000
     44 H16        -15.1720     4.9180    24.1930 h4         1 QI7       0.021100
     45 H17        -22.8610     7.1560    32.5380 ha         1 QI7       0.112000
     46 H18        -22.3880     4.9730    33.5690 ha         1 QI7       0.124000
     47 H19        -22.3130     6.9200    26.5830 hc         1 QI7       0.063200
     48 H20        -23.6140     6.4610    27.6780 hc         1 QI7       0.063200
     49 O          -19.3780     6.2360    28.6210 o          1 QI7      -0.564100
     50 H10        -18.6000     3.1100    25.6620 h4         1 QI7       0.022100
@<TRIPOS>BOND
     1     1     4 1   
     2     1     5 1   
     3     1    30 1   
     4     2    15 1   
     5     2    16 1   
     6     2    31 1   
     7     3     4 1   
     8     3    28 1   
     9     3    32 1   
    10     3    33 1   
    11     4    29 2   
    12     5     6 2   
    13     5    34 1   
    14     6    29 1   
    15     6    35 1   
    16     7    27 1   
    17     7    28 1   
    18     7    36 1   
    19     7    37 1   
    20     8    13 1   
    21     8    15 1   
    22     8    27 1   
    23     8    38 1   
    24     9    16 ar  
    25     9    21 ar  
    26     9    50 1   
    27    10    12 ar  
    28    10    19 ar  
    29    10    20 ar  
    30    11    18 ar  
    31    11    19 ar  
    32    11    39 1   
    33    12    16 ar  
    34    12    17 ar  
    35    13    14 ar  
    36    13    22 ar  
    37    14    25 ar  
    38    14    40 1   
    39    15    49 2   
    40    17    18 ar  
    41    17    41 1   
    42    18    42 1   
    43    19    43 1   
    44    20    21 ar  
    45    20    44 1   
    46    22    23 ar  
    47    22    28 1   
    48    23    24 ar  
    49    23    45 1   
    50    24    25 ar  
    51    24    46 1   
    52    25    26 1   
    53    27    47 1   
    54    27    48 1   
@<TRIPOS>SUBSTRUCTURE
     1 QI7         1 TEMP              0 ****  ****    0 ROOT
