@<TRIPOS>MOLECULE
QI8
   17    17     1     0     0
SMALL
No Charge or Current Charge


@<TRIPOS>ATOM
      1 C10         31.1720    -3.6580    -8.6980 ca         1 QI8       0.142000
      2 C13         29.4200    -5.0950    -9.5340 ca         1 QI8       0.142000
      3 C02         28.5130    -4.5450    -8.6040 ca         1 QI8       0.176000
      4 C03         28.9240    -3.5290    -7.6950 ca         1 QI8      -0.183600
      5 C04         27.9790    -2.9140    -6.6760 c          1 QI8       0.609700
      6 C08         30.2780    -3.0990    -7.7630 ca         1 QI8       0.176000
      7 C12         30.7480    -4.6550    -9.5840 ca         1 QI8      -0.129000
      8 F01         27.2510    -5.0350    -8.5940 f          1 QI8      -0.138500
      9 F09         30.7440    -2.1220    -6.9490 f          1 QI8      -0.138500
     10 F11         32.4550    -3.2320    -8.7520 f          1 QI8      -0.145500
     11 F14         29.0150    -6.0640   -10.3870 f          1 QI8      -0.145500
     12 N05         26.6160    -3.1080    -6.8440 ns         1 QI8      -0.364400
     13 O06         25.6620    -2.4380    -5.9830 oh         1 QI8      -0.431100
     14 O07         28.3640    -2.2700    -5.7090 o          1 QI8      -0.584100
     15 H1          31.4410    -5.0830   -10.3020 ha         1 QI8       0.163000
     16 H2          26.2520    -3.5360    -7.6930 hn         1 QI8       0.370500
     17 H3          26.2380    -1.8220    -5.4660 ho         1 QI8       0.479000
@<TRIPOS>BOND
     1     1     6 ar  
     2     1     7 ar  
     3     1    10 1   
     4     2     3 ar  
     5     2     7 ar  
     6     2    11 1   
     7     3     4 ar  
     8     3     8 1   
     9     4     5 1   
    10     4     6 ar  
    11     5    12 1   
    12     5    14 2   
    13     6     9 1   
    14     7    15 1   
    15    12    13 1   
    16    12    16 1   
    17    13    17 1   
@<TRIPOS>SUBSTRUCTURE
     1 QI8         1 TEMP              0 ****  ****    0 ROOT
