@<TRIPOS>MOLECULE
QI8
   17    17     1     0     0
SMALL
abcg2


@<TRIPOS>ATOM
      1 C10         30.9800    -3.4950    -8.8460 ca         1 QI8       0.142000
      2 C13         29.5100    -5.2950    -9.3250 ca         1 QI8       0.142000
      3 C02         28.6080    -4.8110    -8.3890 ca         1 QI8       0.176000
      4 C03         28.8810    -3.6570    -7.6670 ca         1 QI8      -0.183600
      5 C04         27.9380    -3.1370    -6.6220 c          1 QI8       0.609700
      6 C08         30.0870    -3.0100    -7.9060 ca         1 QI8       0.176000
      7 C12         30.7040    -4.6430    -9.5650 ca         1 QI8      -0.129000
      8 F01         27.4670    -5.4820    -8.1760 f          1 QI8      -0.138500
      9 F09         30.3870    -1.8910    -7.2320 f          1 QI8      -0.138500
     10 F11         32.1230    -2.8260    -9.0600 f          1 QI8      -0.145500
     11 F14         29.2050    -6.4130   -10.0020 f          1 QI8      -0.145500
     12 N05         26.8260    -2.5830    -7.1000 ns         1 QI8      -0.364400
     13 O06         25.8920    -2.0670    -6.2180 oh         1 QI8      -0.431100
     14 O07         28.1630    -3.2100    -5.4130 o          1 QI8      -0.584100
     15 H1          31.4050    -5.0210   -10.2970 ha         1 QI8       0.163000
     16 H2          26.5950    -2.4350    -8.0710 hn         1 QI8       0.370500
     17 H3          26.3020    -2.2300    -5.3450 ho         1 QI8       0.479000
@<TRIPOS>BOND
     1     1     6 ar  
     2     1     7 ar  
     3     1    10 1   
     4     2     3 ar  
     5     2     7 ar  
     6     2    11 1   
     7     3     4 ar  
     8     3     8 1   
     9     4     5 1   
    10     4     6 ar  
    11     5    12 1   
    12     5    14 2   
    13     6     9 1   
    14     7    15 1   
    15    12    13 1   
    16    12    16 1   
    17    13    17 1   
@<TRIPOS>SUBSTRUCTURE
     1 QI8         1 TEMP              0 ****  ****    0 ROOT
