@<TRIPOS>MOLECULE
QIA
   38    41     1     0     0
SMALL
No Charge or Current Charge


@<TRIPOS>ATOM
      1 N1          -5.3180   -45.6330     0.3720 nu         1 QIA      -0.949100
      2 C7          -2.0070   -45.2510    -0.0540 ca         1 QIA      -0.097000
      3 C8          -0.9880   -44.3400    -0.3800 ca         1 QIA      -0.110000
      4 N2          -6.4400   -43.1800     1.3340 nb         1 QIA      -0.179000
      5 C9          -1.1420   -43.4740    -1.4750 ca         1 QIA      -0.115000
      6 O1          -1.9280   -46.9030     7.8140 o          1 QIA      -0.713000
      7 C1          -3.0290   -46.2440     5.8290 ca         1 QIA      -0.104600
      8 C5          -4.3000   -46.2860    -0.4650 c3         1 QIA       0.291100
      9 C6          -3.1900   -45.3020    -0.8210 ca         1 QIA      -0.090300
     10 N3          -6.7360   -41.6090     3.1310 nb         1 QIA      -0.181000
     11 C4          -5.1250   -45.1910     1.6690 ca         1 QIA       0.613900
     12 C3          -4.1280   -45.6700     3.6980 ca         1 QIA       0.290000
     13 C2          -3.3380   -46.5320     4.4810 ca         1 QIA      -0.077000
     14 O           -1.7610   -48.2160     6.1220 o          1 QIA      -0.713000
     15 C18         -3.5350   -45.0530     6.3890 ca         1 QIA      -0.079000
     16 C17         -4.3250   -44.1790     5.6260 ca         1 QIA      -0.123000
     17 C16         -4.6310   -44.4730     4.2770 ca         1 QIA      -0.113000
     18 C15         -5.4270   -43.6110     3.4760 ca         1 QIA      -0.053000
     19 C14         -5.9880   -42.3930     3.9320 ca         1 QIA       0.105900
     20 C13         -6.9240   -42.0430     1.8710 ca         1 QIA       0.081900
     21 C12         -5.6850   -43.9780     2.1330 ca         1 QIA      -0.051000
     22 N           -4.3800   -46.0130     2.4180 nb         1 QIA      -0.725000
     23 C11         -3.3380   -44.4290    -1.9180 ca         1 QIA      -0.097000
     24 C10         -2.3180   -43.5180    -2.2440 ca         1 QIA      -0.110000
     25 H1          -5.9530   -45.0180    -0.1320 hn         1 QIA       0.508000
     26 H2          -1.8820   -45.9160     0.7970 ha         1 QIA       0.111000
     27 H3          -0.0790   -44.3060     0.2160 ha         1 QIA       0.106000
     28 H4          -0.3530   -42.7690    -1.7280 ha         1 QIA       0.105000
     29 H6          -4.7600   -46.6510    -1.3940 h1         1 QIA       0.053700
     30 H7          -3.8750   -47.1610     0.0470 h1         1 QIA       0.053700
     31 H8          -2.9620   -47.4420     4.0230 ha         1 QIA       0.150000
     32 H9          -3.3180   -44.7980     7.4250 ha         1 QIA       0.136000
     33 H10         -4.6860   -43.2780     6.1100 ha         1 QIA       0.089000
     34 H11         -5.8510   -42.0200     4.9440 h4         1 QIA       0.027100
     35 H12         -7.5280   -41.4130     1.2200 h5         1 QIA       0.037100
     36 H13         -4.2460   -44.4550    -2.5170 ha         1 QIA       0.111000
     37 H14         -2.4390   -42.8470    -3.0910 ha         1 QIA       0.106000
     38 C           -2.1740   -47.1930     6.6510 c          1 QIA       0.704600
@<TRIPOS>BOND
     1     1     8 1   
     2     1    11 1   
     3     1    25 1   
     4     2     3 ar  
     5     2     9 ar  
     6     2    26 1   
     7     3     5 ar  
     8     3    27 1   
     9     4    20 ar  
    10     4    21 ar  
    11     5    24 ar  
    12     5    28 1   
    13     6    38 1   
    14     7    13 ar  
    15     7    15 ar  
    16     7    38 1   
    17     8     9 1   
    18     8    29 1   
    19     8    30 1   
    20     9    23 ar  
    21    10    19 ar  
    22    10    20 ar  
    23    11    21 ar  
    24    11    22 ar  
    25    12    13 ar  
    26    12    17 ar  
    27    12    22 ar  
    28    13    31 1   
    29    14    38 1   
    30    15    16 ar  
    31    15    32 1   
    32    16    17 ar  
    33    16    33 1   
    34    17    18 ar  
    35    18    19 ar  
    36    18    21 ar  
    37    19    34 1   
    38    20    35 1   
    39    23    24 ar  
    40    23    36 1   
    41    24    37 1   
@<TRIPOS>SUBSTRUCTURE
     1 QIA         1 TEMP              0 ****  ****    0 ROOT
