@<TRIPOS>MOLECULE
QIA
   38    41     1     0     0
SMALL
abcg2


@<TRIPOS>ATOM
      1 N1          -5.3140   -45.1430     0.2630 nu         1 QIA      -0.949100
      2 C7          -2.0010   -46.3050    -1.0360 ca         1 QIA      -0.097000
      3 C8          -0.7310   -45.8150    -1.3170 ca         1 QIA      -0.110000
      4 N2          -6.9840   -43.3230     1.4230 nb         1 QIA      -0.179000
      5 C9          -0.4980   -44.4420    -1.3260 ca         1 QIA      -0.115000
      6 O1          -1.5070   -46.1060     7.5860 o          1 QIA      -0.713000
      7 C1          -2.7650   -45.6150     5.6290 ca         1 QIA      -0.104600
      8 C5          -4.4380   -46.0050    -0.4970 c3         1 QIA       0.291100
      9 C6          -3.0570   -45.4350    -0.7660 ca         1 QIA      -0.090300
     10 N3          -7.7360   -42.1000     3.3130 nb         1 QIA      -0.181000
     11 C4          -5.1340   -44.8730     1.5730 ca         1 QIA       0.613900
     12 C3          -4.0300   -45.1840     3.5940 ca         1 QIA       0.290000
     13 C2          -2.9940   -45.8360     4.2840 ca         1 QIA      -0.077000
     14 O           -0.8950   -47.0900     5.6660 o          1 QIA      -0.713000
     15 C18         -3.5970   -44.7160     6.3210 ca         1 QIA      -0.079000
     16 C17         -4.6180   -44.0580     5.6700 ca         1 QIA      -0.123000
     17 C16         -4.8550   -44.2730     4.3020 ca         1 QIA      -0.113000
     18 C15         -5.8950   -43.6150     3.5480 ca         1 QIA      -0.053000
     19 C14         -6.8080   -42.6740     4.0590 ca         1 QIA       0.105900
     20 C13         -7.7800   -42.4550     2.0160 ca         1 QIA       0.081900
     21 C12         -6.0410   -43.9060     2.1850 ca         1 QIA      -0.051000
     22 N           -4.1880   -45.4620     2.2540 nb         1 QIA      -0.725000
     23 C11         -2.8180   -44.0630    -0.7790 ca         1 QIA      -0.097000
     24 C10         -1.5470   -43.5690    -1.0540 ca         1 QIA      -0.110000
     25 H1          -6.0200   -44.6040    -0.2120 hn         1 QIA       0.508000
     26 H2          -2.1740   -47.3750    -1.0170 ha         1 QIA       0.111000
     27 H3           0.0790   -46.5050    -1.5210 ha         1 QIA       0.106000
     28 H4           0.4920   -44.0580    -1.5380 ha         1 QIA       0.105000
     29 H6          -4.9390   -46.2100    -1.4450 h1         1 QIA       0.053700
     30 H7          -4.3290   -46.9590     0.0220 h1         1 QIA       0.053700
     31 H8          -2.3630   -46.5260     3.7400 ha         1 QIA       0.150000
     32 H9          -3.4180   -44.5480     7.3730 ha         1 QIA       0.136000
     33 H10         -5.2420   -43.3690     6.2240 ha         1 QIA       0.089000
     34 H11         -6.7770   -42.3830     5.1030 h4         1 QIA       0.027100
     35 H12         -8.5410   -41.9800     1.4070 h5         1 QIA       0.037100
     36 H13         -3.6270   -43.3770    -0.5610 ha         1 QIA       0.111000
     37 H14         -1.3750   -42.5000    -1.0540 ha         1 QIA       0.106000
     38 C           -1.6250   -46.3330     6.3550 c          1 QIA       0.704600
@<TRIPOS>BOND
     1     1     8 1   
     2     1    11 1   
     3     1    25 1   
     4     2     3 ar  
     5     2     9 ar  
     6     2    26 1   
     7     3     5 ar  
     8     3    27 1   
     9     4    20 ar  
    10     4    21 ar  
    11     5    24 ar  
    12     5    28 1   
    13     6    38 1   
    14     7    13 ar  
    15     7    15 ar  
    16     7    38 1   
    17     8     9 1   
    18     8    29 1   
    19     8    30 1   
    20     9    23 ar  
    21    10    19 ar  
    22    10    20 ar  
    23    11    21 ar  
    24    11    22 ar  
    25    12    13 ar  
    26    12    17 ar  
    27    12    22 ar  
    28    13    31 1   
    29    14    38 1   
    30    15    16 ar  
    31    15    32 1   
    32    16    17 ar  
    33    16    33 1   
    34    17    18 ar  
    35    18    19 ar  
    36    18    21 ar  
    37    19    34 1   
    38    20    35 1   
    39    23    24 ar  
    40    23    36 1   
    41    24    37 1   
@<TRIPOS>SUBSTRUCTURE
     1 QIA         1 TEMP              0 ****  ****    0 ROOT
