@<TRIPOS>MOLECULE
QIB
   40    43     1     0     0
SMALL
abcg2


@<TRIPOS>ATOM
      1 N1         -16.8630     4.4940    26.0250 nb         1 QIB      -0.655000
      2 C4         -22.5160     4.5940    32.5220 ca         1 QIB      -0.140000
      3 C5         -22.5210     3.2120    32.4460 ca         1 QIB      -0.055000
      4 C6         -22.3450     2.6030    31.2080 ca         1 QIB       0.083000
      5 C7         -22.1700     3.3560    30.0620 ca         1 QIB      -0.040000
      6 C8         -22.1660     4.7480    30.1310 ca         1 QIB      -0.187300
      7 C10        -18.9340     5.5640    26.6130 ca         1 QIB      -0.088000
      8 C13        -17.1450     6.8530    25.6160 ca         1 QIB      -0.096000
      9 C15        -17.3670     9.2190    25.1960 ca         1 QIB      -0.112000
     10 C17        -19.2170     8.0150    26.1980 ca         1 QIB      -0.103000
     11 C9         -20.4890     5.5960    28.4800 c          1 QIB       0.610100
     12 C          -21.9830     5.5680    28.8670 c6         1 QIB       0.159300
     13 C3         -22.3350     5.3690    31.3740 ca         1 QIB       0.172100
     14 O1         -22.3650     6.7160    31.5460 os         1 QIB      -0.345100
     15 C2         -21.9450     7.5390    30.4420 c6         1 QIB       0.163600
     16 C1         -22.4580     7.0080    29.1220 c6         1 QIB      -0.135400
     17 O          -22.6890     4.9990    27.7670 oh         1 QIB      -0.667000
     18 N          -20.2400     5.4460    27.1640 ns         1 QIB      -0.157000
     19 C18        -18.4630     6.8200    26.1510 ca         1 QIB      -0.008000
     20 C16        -18.6750     9.1850    25.7290 ca         1 QIB      -0.088000
     21 C14        -16.6150     8.0740    25.1400 ca         1 QIB      -0.077000
     22 C12        -16.4070     5.6460    25.5870 ca         1 QIB       0.365900
     23 C11        -18.1220     4.4640    26.5340 ca         1 QIB       0.342900
     24 H1         -22.6510     5.0930    33.4730 ha         1 QIB       0.135000
     25 H2         -22.6600     2.6150    33.3370 ha         1 QIB       0.133000
     26 H3         -22.0470     2.8730    29.1040 ha         1 QIB       0.137000
     27 H4         -16.9630    10.1550    24.8330 ha         1 QIB       0.118000
     28 H5         -20.2190     7.9970    26.6050 ha         1 QIB       0.115000
     29 H6         -20.8550     7.5930    30.4470 h1         1 QIB       0.074700
     30 H7         -22.3520     8.5270    30.6480 h1         1 QIB       0.074700
     31 H8         -22.1390     7.6610    28.3090 hc         1 QIB       0.063200
     32 H9         -23.5520     6.9960    29.1350 hc         1 QIB       0.063200
     33 H10        -23.6360     5.1220    27.9100 ho         1 QIB       0.462000
     34 H11        -21.0340     5.3270    26.5510 hn         1 QIB       0.182000
     35 H12        -19.2550    10.0990    25.7670 ha         1 QIB       0.115000
     36 H13        -15.6100     8.0870    24.7350 ha         1 QIB       0.119000
     37 H14        -15.3990     5.6590    25.1810 h4         1 QIB       0.022100
     38 H15        -18.4800     3.5060    26.8920 h4         1 QIB       0.031100
     39 CL         -22.3470     0.8510    31.1010 cl         1 QIB      -0.211000
     40 O2         -19.6220     5.7870    29.3240 o          1 QIB      -0.576100
@<TRIPOS>BOND
     1     1    22 ar  
     2     1    23 ar  
     3     2     3 ar  
     4     2    13 ar  
     5     2    24 1   
     6     3     4 ar  
     7     3    25 1   
     8     4     5 ar  
     9     4    39 1   
    10     5     6 ar  
    11     5    26 1   
    12     6    12 1   
    13     6    13 ar  
    14     7    18 1   
    15     7    19 ar  
    16     7    23 ar  
    17     8    19 ar  
    18     8    21 ar  
    19     8    22 ar  
    20     9    20 ar  
    21     9    21 ar  
    22     9    27 1   
    23    10    19 ar  
    24    10    20 ar  
    25    10    28 1   
    26    11    12 1   
    27    11    18 1   
    28    11    40 2   
    29    12    16 1   
    30    12    17 1   
    31    13    14 1   
    32    14    15 1   
    33    15    16 1   
    34    15    29 1   
    35    15    30 1   
    36    16    31 1   
    37    16    32 1   
    38    17    33 1   
    39    18    34 1   
    40    20    35 1   
    41    21    36 1   
    42    22    37 1   
    43    23    38 1   
@<TRIPOS>SUBSTRUCTURE
     1 QIB         1 TEMP              0 ****  ****    0 ROOT
