@<TRIPOS>MOLECULE
QIB
   40    43     1     0     0
SMALL
No Charge or Current Charge


@<TRIPOS>ATOM
      1 N1         -16.5060     5.0010    26.7190 nb         1 QIB      -0.655000
      2 C4         -22.3220     4.7770    32.5600 ca         1 QIB      -0.140000
      3 C5         -22.4440     3.3860    32.7160 ca         1 QIB      -0.055000
      4 C6         -22.4820     2.5590    31.5830 ca         1 QIB       0.083000
      5 C7         -22.4040     3.1190    30.2970 ca         1 QIB      -0.040000
      6 C8         -22.2840     4.5180    30.1250 ca         1 QIB      -0.187300
      7 C10        -18.7350     5.9550    27.0160 ca         1 QIB      -0.088000
      8 C13        -17.0480     7.1550    25.7460 ca         1 QIB      -0.096000
      9 C15        -17.5190     9.3260    24.7470 ca         1 QIB      -0.112000
     10 C17        -19.2490     8.1670    26.0110 ca         1 QIB      -0.103000
     11 C9         -20.7680     4.7950    28.0890 c          1 QIB       0.610100
     12 C          -22.2020     5.1240    28.7070 c6         1 QIB       0.159300
     13 C3         -22.2320     5.3430    31.2780 ca         1 QIB       0.172100
     14 O1         -22.1300     6.7140    31.1870 os         1 QIB      -0.345100
     15 C2         -21.7750     7.3220    29.9320 c6         1 QIB       0.163600
     16 C1         -22.5420     6.6430    28.7790 c6         1 QIB      -0.135400
     17 O          -23.2260     4.5160    27.8940 oh         1 QIB      -0.667000
     18 N          -20.0490     5.8690    27.5710 ns         1 QIB      -0.157000
     19 C18        -18.3600     7.0960    26.2650 ca         1 QIB      -0.008000
     20 C16        -18.8260     9.2750    25.2560 ca         1 QIB      -0.088000
     21 C14        -16.6290     8.2670    24.9900 ca         1 QIB      -0.077000
     22 C12        -16.1640     6.0890    25.9950 ca         1 QIB       0.365900
     23 C11        -17.7630     4.9420    27.2150 ca         1 QIB       0.342900
     24 H1         -22.2950     5.4200    33.4360 ha         1 QIB       0.135000
     25 H2         -22.5090     2.9500    33.7110 ha         1 QIB       0.133000
     26 H3         -22.4360     2.4590    29.4330 ha         1 QIB       0.137000
     27 H4         -17.1950    10.1850    24.1630 ha         1 QIB       0.118000
     28 H5         -20.2690     8.1570    26.3860 ha         1 QIB       0.115000
     29 H6         -20.6890     7.2280    29.7900 h1         1 QIB       0.074700
     30 H7         -22.0160     8.3940    29.9760 h1         1 QIB       0.074700
     31 H8         -22.3490     7.1500    27.8240 hc         1 QIB       0.063200
     32 H9         -23.6170     6.7760    28.9670 hc         1 QIB       0.063200
     33 H10        -24.0600     4.5720    28.4090 ho         1 QIB       0.462000
     34 H11        -20.5410     6.7510    27.6010 hn         1 QIB       0.182000
     35 H12        -19.5140    10.0960    25.0650 ha         1 QIB       0.115000
     36 H13        -15.6170     8.3120    24.5910 ha         1 QIB       0.119000
     37 H14        -15.1460     6.1070    25.6080 h4         1 QIB       0.022100
     38 H15        -17.9730     4.0580    27.8120 h4         1 QIB       0.031100
     39 Cl         -22.6320     0.8170    31.7740 cl         1 QIB      -0.211000
     40 O2         -20.3340     3.6450    28.0480 o          1 QIB      -0.576100
@<TRIPOS>BOND
     1     1    22 ar  
     2     1    23 ar  
     3     2     3 ar  
     4     2    13 ar  
     5     2    24 1   
     6     3     4 ar  
     7     3    25 1   
     8     4     5 ar  
     9     4    39 1   
    10     5     6 ar  
    11     5    26 1   
    12     6    12 1   
    13     6    13 ar  
    14     7    18 1   
    15     7    19 ar  
    16     7    23 ar  
    17     8    19 ar  
    18     8    21 ar  
    19     8    22 ar  
    20     9    20 ar  
    21     9    21 ar  
    22     9    27 1   
    23    10    19 ar  
    24    10    20 ar  
    25    10    28 1   
    26    11    12 1   
    27    11    18 1   
    28    11    40 2   
    29    12    16 1   
    30    12    17 1   
    31    13    14 1   
    32    14    15 1   
    33    15    16 1   
    34    15    29 1   
    35    15    30 1   
    36    16    31 1   
    37    16    32 1   
    38    17    33 1   
    39    18    34 1   
    40    20    35 1   
    41    21    36 1   
    42    22    37 1   
    43    23    38 1   
@<TRIPOS>SUBSTRUCTURE
     1 QIB         1 TEMP              0 ****  ****    0 ROOT
