@<TRIPOS>MOLECULE
QIC
   24    24     1     0     0
SMALL
No Charge or Current Charge


@<TRIPOS>ATOM
      1 C1          -0.9560     0.1010    -0.1980 c6         1 QIC       0.048000
      2 O1          -0.9460    -0.0350    -1.6450 oh         1 QIC      -0.692000
      3 C2          -0.4080    -1.2100     0.4780 c6         1 QIC      -0.077900
      4 O2           1.4390    -1.9590    -1.0080 oh         1 QIC      -0.728500
      5 C3           1.1160    -1.4890     0.3080 c6         1 QIC       0.157300
      6 O3           3.3610    -0.4690     0.3580 oh         1 QIC      -0.691000
      7 C4           1.9710    -0.2340     0.6570 c6         1 QIC       0.132300
      8 O4           2.2630     2.1720     0.2710 oh         1 QIC      -0.728500
      9 C5           1.4680     1.0300    -0.1010 c6         1 QIC       0.157300
     10 C6          -0.0260     1.2900     0.2190 c6         1 QIC      -0.077900
     11 C7          -2.4490     0.3350     0.3150 c          1 QIC       0.692000
     12 HO1         -1.7180    -0.6050    -1.8650 ho         1 QIC       0.470000
     13 H2          -0.6150    -1.1490     1.5560 hc         1 QIC       0.053700
     14 H2A         -0.9760    -2.0820     0.1270 hc         1 QIC       0.053700
     15 HO2          2.3890    -1.7130    -1.1080 ho         1 QIC       0.494500
     16 H3           1.3830    -2.2740     1.0310 h1         1 QIC       0.035200
     17 HO3          3.7660     0.4300     0.3630 ho         1 QIC       0.452000
     18 H4           1.8560    -0.0440     1.7360 h1         1 QIC       0.044700
     19 HO4          1.9440     2.9290    -0.2740 ho         1 QIC       0.494500
     20 H5           1.5670     0.8540    -1.1830 h1         1 QIC       0.035200
     21 H6          -0.3510     2.2070    -0.2910 hc         1 QIC       0.053700
     22 H6A         -0.1370     1.4840     1.2960 hc         1 QIC       0.053700
     23 O5          -2.8300     1.4900     0.4600 o          1 QIC      -0.716500
     24 O6          -3.2530    -0.5500     0.0460 o          1 QIC      -0.716500
@<TRIPOS>BOND
     1     1     2 1   
     2     1     3 1   
     3     1    10 1   
     4     1    11 1   
     5     2    12 1   
     6     3     5 1   
     7     3    13 1   
     8     3    14 1   
     9     4     5 1   
    10     4    15 1   
    11     5     7 1   
    12     5    16 1   
    13     6     7 1   
    14     6    17 1   
    15     7     9 1   
    16     7    18 1   
    17     8     9 1   
    18     8    19 1   
    19     9    10 1   
    20     9    20 1   
    21    10    21 1   
    22    10    22 1   
    23    11    23 1   
    24    11    24 1   
@<TRIPOS>SUBSTRUCTURE
     1 QIC         1 TEMP              0 ****  ****    0 ROOT
