@<TRIPOS>MOLECULE
QIC
   24    24     1     0     0
SMALL
bcc


@<TRIPOS>ATOM
      1 C1          -0.9220    -0.0130    -0.2060 c6         1 QIC       0.024800
      2 O1          -0.9000    -0.2850    -1.5870 oh         1 QIC      -0.629800
      3 C2          -0.3520    -1.1970     0.5840 c6         1 QIC      -0.077900
      4 O2           1.4210    -1.9090    -0.8730 oh         1 QIC      -0.606300
      5 C3           1.1460    -1.4110     0.4160 c6         1 QIC       0.134100
      6 O3           3.2770    -0.3670     0.4730 oh         1 QIC      -0.628800
      7 C4           1.9080    -0.1130     0.6860 c6         1 QIC       0.109100
      8 O4           2.1710     2.1600     0.1070 oh         1 QIC      -0.606300
      9 C5           1.3900     1.0160    -0.1920 c6         1 QIC       0.134100
     10 C6          -0.0880     1.2430     0.0900 c6         1 QIC      -0.077900
     11 C7          -2.3910     0.2520     0.2100 c          1 QIC       0.902600
     12 HO1         -1.8190    -0.1170    -1.8570 ho         1 QIC       0.431000
     13 H2          -0.5420    -1.0340     1.6460 hc         1 QIC       0.053700
     14 H2A         -0.8800    -2.1160     0.3120 hc         1 QIC       0.053700
     15 HO2          2.3790    -1.9230    -0.9750 ho         1 QIC       0.395500
     16 H3           1.4610    -2.1430     1.1770 h1         1 QIC       0.035200
     17 HO3          3.7260     0.4820     0.3830 ho         1 QIC       0.413000
     18 H4           1.7230     0.1670     1.7370 h1         1 QIC       0.044700
     19 HO4          2.1540     2.7470    -0.6550 ho         1 QIC       0.395500
     20 H5           1.5230     0.7310    -1.2430 h1         1 QIC       0.035200
     21 H6          -0.4570     2.0820    -0.5090 hc         1 QIC       0.053700
     22 H6A         -0.2090     1.5260     1.1410 hc         1 QIC       0.053700
     23 O5          -2.6450     0.4460     1.4130 o          1 QIC      -0.821800
     24 O6          -3.2170     0.2830    -0.7310 o          1 QIC      -0.821800
@<TRIPOS>BOND
     1     1     2 1   
     2     1     3 1   
     3     1    10 1   
     4     1    11 1   
     5     2    12 1   
     6     3     5 1   
     7     3    13 1   
     8     3    14 1   
     9     4     5 1   
    10     4    15 1   
    11     5     7 1   
    12     5    16 1   
    13     6     7 1   
    14     6    17 1   
    15     7     9 1   
    16     7    18 1   
    17     8     9 1   
    18     8    19 1   
    19     9    10 1   
    20     9    20 1   
    21    10    21 1   
    22    10    22 1   
    23    11    23 1   
    24    11    24 1   
@<TRIPOS>SUBSTRUCTURE
     1 QIC         1 TEMP              0 ****  ****    0 ROOT
