@<TRIPOS>MOLECULE
QID
   32    34     1     0     0
SMALL
abcg2


@<TRIPOS>ATOM
      1 C01          0.5470    -0.7320    -0.4780 ca         1 QID      -0.315500
      2 C02          0.3110    -1.6950     0.5070 ca         1 QID       0.050000
      3 C03         -0.9270    -1.7860     1.0960 ca         1 QID      -0.194000
      4 C04         -1.9480    -0.9190     0.6940 ca         1 QID       0.170600
      5 C05         -1.7090     0.0300    -0.2980 ca         1 QID      -0.243600
      6 C06         -0.4510     0.1250    -0.8860 ca         1 QID       0.089000
      7 C07         -2.7840     0.9280    -0.7250 c          1 QID       0.602600
      8 N08         -3.1870    -0.9970     1.2650 ns         1 QID      -0.508600
      9 N09         -3.9840     0.7180    -0.0640 n          1 QID      -0.262900
     10 O10         -2.6730     1.7780    -1.5770 o          1 QID      -0.482000
     11 C11         -4.2510    -0.2070     0.9410 c          1 QID       0.628000
     12 O12         -5.3330    -0.2990     1.4650 o          1 QID      -0.510000
     13 O13         -4.9930     1.5700    -0.3510 oh         1 QID      -0.386100
     14 S14          2.1540    -0.6310    -1.2150 sy         1 QID       1.031000
     15 C15          3.1280     0.1850     0.0200 ca         1 QID      -0.267500
     16 O16          2.6610    -1.9900    -1.3660 o          1 QID      -0.522000
     17 O17          2.0570     0.2420    -2.3800 o          1 QID      -0.522000
     18 C18          3.9390    -0.5700     0.8570 ca         1 QID      -0.016000
     19 C19          4.6860     0.0800     1.8290 ca         1 QID      -0.127500
     20 C20          4.6170     1.4610     1.9540 ca         1 QID      -0.055000
     21 C21          3.8040     2.2030     1.1060 ca         1 QID      -0.127500
     22 C22          3.0540     1.5680     0.1300 ca         1 QID      -0.016000
     23 H02          1.0930    -2.3760     0.8180 ha         1 QID       0.137000
     24 H03         -1.1130    -2.5290     1.8600 ha         1 QID       0.130000
     25 H06         -0.2810     0.8660    -1.6550 ha         1 QID       0.166000
     26 HN08        -3.3510    -1.6830     1.9890 hn         1 QID       0.467000
     27 HO13        -5.5090     1.1620    -1.0630 ho         1 QID       0.451000
     28 H18          3.9970    -1.6450     0.7570 ha         1 QID       0.136000
     29 H19          5.3230    -0.4960     2.4860 ha         1 QID       0.121500
     30 H20          5.1990     1.9630     2.7160 ha         1 QID       0.119000
     31 H21          3.7540     3.2790     1.2040 ha         1 QID       0.121500
     32 H22          2.4250     2.1490    -0.5320 ha         1 QID       0.136000
@<TRIPOS>BOND
     1     1     2 ar  
     2     1     6 ar  
     3     1    14 1   
     4     2     3 ar  
     5     2    23 1   
     6     3     4 ar  
     7     3    24 1   
     8     4     5 ar  
     9     4     8 1   
    10     5     6 ar  
    11     5     7 1   
    12     6    25 1   
    13     7     9 1   
    14     7    10 2   
    15     8    11 1   
    16     8    26 1   
    17     9    11 1   
    18     9    13 1   
    19    11    12 2   
    20    13    27 1   
    21    14    15 1   
    22    14    16 2   
    23    14    17 2   
    24    15    18 ar  
    25    15    22 ar  
    26    18    19 ar  
    27    18    28 1   
    28    19    20 ar  
    29    19    29 1   
    30    20    21 ar  
    31    20    30 1   
    32    21    22 ar  
    33    21    31 1   
    34    22    32 1   
@<TRIPOS>SUBSTRUCTURE
     1 QID         1 TEMP              0 ****  ****    0 ROOT
