@<TRIPOS>MOLECULE
QID
   32    34     1     0     0
SMALL
No Charge or Current Charge


@<TRIPOS>ATOM
      1 C01          0.5950    -0.9020    -0.5310 ca         1 QID      -0.315500
      2 C02          0.2780    -1.9790     0.3190 ca         1 QID       0.050000
      3 C03         -1.0040    -2.0620     0.8880 ca         1 QID      -0.194000
      4 C04         -1.9560    -1.0720     0.6120 ca         1 QID       0.170600
      5 C05         -1.6470     0.0030    -0.2250 ca         1 QID      -0.243600
      6 C06         -0.3650     0.0940    -0.8020 ca         1 QID       0.089000
      7 C07         -2.6970     1.0420    -0.4900 c          1 QID       0.602600
      8 N08         -3.2360    -1.1290     1.1640 ns         1 QID      -0.508600
      9 N09         -3.9440     0.8510     0.1430 n          1 QID      -0.262900
     10 O10         -2.4810     2.0010    -1.2210 o          1 QID      -0.482000
     11 C11         -4.2490    -0.2370     0.9830 c          1 QID       0.628000
     12 O12         -5.3340    -0.3940     1.5180 o          1 QID      -0.510000
     13 O13         -4.9860     1.8520    -0.0800 oh         1 QID      -0.386100
     14 S14          2.2380    -0.7760    -1.2490 sy         1 QID       1.031000
     15 C15          3.1410     0.1840    -0.0160 ca         1 QID      -0.267500
     16 O16          2.8170    -2.1270    -1.2830 o          1 QID      -0.522000
     17 O17          2.1320     0.0380    -2.4680 o          1 QID      -0.522000
     18 C18          3.7970    -0.4690     1.0490 ca         1 QID      -0.016000
     19 C19          4.4870     0.2830     2.0160 ca         1 QID      -0.127500
     20 C20          4.5240     1.6840     1.9280 ca         1 QID      -0.055000
     21 C21          3.8680     2.3380     0.8720 ca         1 QID      -0.127500
     22 C22          3.1750     1.5930    -0.0990 ca         1 QID      -0.016000
     23 H02          1.0140    -2.7510     0.5430 ha         1 QID       0.137000
     24 H03         -1.2480    -2.8940     1.5430 ha         1 QID       0.130000
     25 H06         -0.1180     0.9340    -1.4530 ha         1 QID       0.166000
     26 HN08        -3.4540    -1.9130     1.7690 hn         1 QID       0.467000
     27 HO13        -5.4830     1.5380    -0.8690 ho         1 QID       0.451000
     28 H18          3.7740    -1.5540     1.1330 ha         1 QID       0.136000
     29 H19          4.9930    -0.2230     2.8350 ha         1 QID       0.121500
     30 H20          5.0590     2.2630     2.6780 ha         1 QID       0.119000
     31 H21          3.8940     3.4230     0.8050 ha         1 QID       0.121500
     32 H22          2.6680     2.1150    -0.9100 ha         1 QID       0.136000
@<TRIPOS>BOND
     1     1     2 ar  
     2     1     6 ar  
     3     1    14 1   
     4     2     3 ar  
     5     2    23 1   
     6     3     4 ar  
     7     3    24 1   
     8     4     5 ar  
     9     4     8 1   
    10     5     6 ar  
    11     5     7 1   
    12     6    25 1   
    13     7     9 1   
    14     7    10 2   
    15     8    11 1   
    16     8    26 1   
    17     9    11 1   
    18     9    13 1   
    19    11    12 2   
    20    13    27 1   
    21    14    15 1   
    22    14    16 2   
    23    14    17 2   
    24    15    18 ar  
    25    15    22 ar  
    26    18    19 ar  
    27    18    28 1   
    28    19    20 ar  
    29    19    29 1   
    30    20    21 ar  
    31    20    30 1   
    32    21    22 ar  
    33    21    31 1   
    34    22    32 1   
@<TRIPOS>SUBSTRUCTURE
     1 QID         1 TEMP              0 ****  ****    0 ROOT
