@<TRIPOS>MOLECULE
QIE
   43    45     1     0     0
SMALL
No Charge or Current Charge


@<TRIPOS>ATOM
      1 C           -3.5730    -8.0670    -2.7630 cg         1 QIE       0.326000
      2 N           -4.1450    -8.2430    -1.7600 n1         1 QIE      -0.455000
      3 C21         -2.8630    -7.8390    -3.9920 ca         1 QIE      -0.018000
      4 C20         -1.8220    -8.7050    -4.3760 ca         1 QIE      -0.053000
      5 C22         -3.2070    -6.7510    -4.8170 ca         1 QIE      -0.066000
      6 C23         -2.5120    -6.5340    -6.0190 ca         1 QIE      -0.113000
      7 C24         -1.4750    -7.4020    -6.4020 ca         1 QIE      -0.072000
      8 C19         -1.1240    -8.4940    -5.5840 ca         1 QIE      -0.072300
      9 C17         -0.0040    -9.4450    -5.9990 c3         1 QIE      -0.101100
     10 C16         -0.5450   -10.8800    -6.1520 c          1 QIE       0.604100
     11 O18         -1.2060   -11.1910    -7.1340 o          1 QIE      -0.593100
     12 N1          -0.3310   -11.8170    -5.1150 n          1 QIE      -0.413800
     13 C5           0.7390   -11.7010    -4.0990 c5         1 QIE       0.109000
     14 C4           0.8730   -13.1640    -3.6070 c5         1 QIE      -0.092400
     15 C3          -0.5880   -13.6640    -3.6820 c5         1 QIE      -0.085400
     16 C2          -1.0350   -13.1320    -5.0770 c5         1 QIE       0.035700
     17 C6          -2.5960   -13.0500    -5.1020 c          1 QIE       0.617100
     18 O8          -3.2870   -12.0870    -4.7910 o          1 QIE      -0.569100
     19 N7          -3.0900   -14.2600    -5.5350 ns         1 QIE      -0.310900
     20 C9          -4.4040   -14.6920    -5.7410 ca         1 QIE       0.487900
     21 N14         -4.4380   -16.0150    -5.9890 nb         1 QIE      -0.712000
     22 C13         -5.6450   -16.5760    -6.2090 ca         1 QIE       0.450200
     23 Br15        -5.6510   -18.4550    -6.5540 br         1 QIE      -0.173200
     24 C12         -6.8480   -15.8530    -6.1940 ca         1 QIE      -0.167000
     25 C11         -6.8090   -14.4730    -5.9400 ca         1 QIE      -0.050000
     26 C10         -5.5570   -13.8810    -5.7090 ca         1 QIE      -0.167000
     27 H1          -1.5590    -9.5460    -3.7380 ha         1 QIE       0.127000
     28 H2          -4.0100    -6.0750    -4.5300 ha         1 QIE       0.126000
     29 H3          -2.7790    -5.6940    -6.6560 ha         1 QIE       0.121000
     30 H4          -0.9480    -7.2250    -7.3370 ha         1 QIE       0.114000
     31 H5           0.7890    -9.3880    -5.2480 hc         1 QIE       0.067200
     32 H6           0.4070    -9.1340    -6.9660 hc         1 QIE       0.067200
     33 H7           1.6840   -11.3350    -4.5200 h1         1 QIE       0.052700
     34 H8           0.4310   -11.0300    -3.2860 h1         1 QIE       0.052700
     35 H9           1.2960   -13.2290    -2.5980 hc         1 QIE       0.059700
     36 H10          1.5230   -13.7450    -4.2730 hc         1 QIE       0.059700
     37 H11         -1.1890   -13.2320    -2.8720 hc         1 QIE       0.067200
     38 H12         -0.6680   -14.7550    -3.6020 hc         1 QIE       0.067200
     39 H13         -0.6840   -13.7780    -5.8930 h1         1 QIE       0.070700
     40 H14         -2.3980   -14.9690    -5.7300 hn         1 QIE       0.171000
     41 H15         -7.7910   -16.3600    -6.3800 ha         1 QIE       0.142000
     42 H16         -7.7220   -13.8800    -5.9240 ha         1 QIE       0.126000
     43 H17         -5.4950   -12.8160    -5.5190 ha         1 QIE       0.162000
@<TRIPOS>BOND
     1     1     2 3   
     2     1     3 1   
     3     3     4 ar  
     4     3     5 ar  
     5     4     8 ar  
     6     4    27 1   
     7     5     6 ar  
     8     5    28 1   
     9     6     7 ar  
    10     6    29 1   
    11     7     8 ar  
    12     7    30 1   
    13     8     9 1   
    14     9    10 1   
    15     9    31 1   
    16     9    32 1   
    17    10    11 2   
    18    10    12 1   
    19    12    13 1   
    20    12    16 1   
    21    13    14 1   
    22    13    33 1   
    23    13    34 1   
    24    14    15 1   
    25    14    35 1   
    26    14    36 1   
    27    15    16 1   
    28    15    37 1   
    29    15    38 1   
    30    16    17 1   
    31    16    39 1   
    32    17    18 2   
    33    17    19 1   
    34    19    20 1   
    35    19    40 1   
    36    20    21 ar  
    37    20    26 ar  
    38    21    22 ar  
    39    22    23 1   
    40    22    24 ar  
    41    24    25 ar  
    42    24    41 1   
    43    25    26 ar  
    44    25    42 1   
    45    26    43 1   
@<TRIPOS>SUBSTRUCTURE
     1 QIE         1 TEMP              0 ****  ****    0 ROOT
