@<TRIPOS>MOLECULE
QIE
   43    45     1     0     0
SMALL
abcg2


@<TRIPOS>ATOM
      1 C           -4.4440    -6.6430    -3.9540 cg         1 QIE       0.326000
      2 N           -5.3500    -6.3500    -3.3030 n1         1 QIE      -0.455000
      3 C21         -3.3250    -7.0050    -4.7630 ca         1 QIE      -0.018000
      4 C20         -2.4950    -8.0560    -4.3620 ca         1 QIE      -0.053000
      5 C22         -3.0710    -6.3060    -5.9480 ca         1 QIE      -0.066000
      6 C23         -1.9800    -6.6710    -6.7210 ca         1 QIE      -0.113000
      7 C24         -1.1560    -7.7180    -6.3210 ca         1 QIE      -0.072000
      8 C19         -1.4040    -8.4210    -5.1420 ca         1 QIE      -0.072300
      9 C17         -0.5280    -9.5680    -4.7270 c3         1 QIE      -0.101100
     10 C16         -1.0630   -10.9140    -5.2060 c          1 QIE       0.604100
     11 O18         -2.0330   -11.0090    -5.9610 o          1 QIE      -0.593100
     12 N1          -0.4170   -12.0040    -4.7550 n          1 QIE      -0.413800
     13 C5           0.7770   -12.0360    -3.8980 c5         1 QIE       0.109000
     14 C4           1.3250   -13.4410    -4.1350 c5         1 QIE      -0.092400
     15 C3           0.0630   -14.2790    -4.3530 c5         1 QIE      -0.085400
     16 C2          -0.8630   -13.3380    -5.1480 c5         1 QIE       0.035700
     17 C6          -2.3290   -13.5620    -4.7800 c          1 QIE       0.617100
     18 O8          -2.7900   -13.1980    -3.7110 o          1 QIE      -0.569100
     19 N7          -3.0260   -14.2590    -5.7230 ns         1 QIE      -0.310900
     20 C9          -4.3500   -14.6910    -5.6990 ca         1 QIE       0.487900
     21 N14         -4.7120   -15.3400    -6.8140 nb         1 QIE      -0.712000
     22 C13         -5.9410   -15.7910    -6.8970 ca         1 QIE       0.450200
     23 BR15        -6.3950   -16.7130    -8.5270 br         1 QIE      -0.173200
     24 C12         -6.9110   -15.6520    -5.9170 ca         1 QIE      -0.167000
     25 C11         -6.5230   -14.9750    -4.7660 ca         1 QIE      -0.050000
     26 C10         -5.2330   -14.4820    -4.6380 ca         1 QIE      -0.167000
     27 H1          -2.7070    -8.5850    -3.4420 ha         1 QIE       0.127000
     28 H2          -3.7180    -5.4930    -6.2470 ha         1 QIE       0.126000
     29 H3          -1.7690    -6.1380    -7.6390 ha         1 QIE       0.121000
     30 H4          -0.3060    -7.9940    -6.9330 ha         1 QIE       0.114000
     31 H5          -0.4290    -9.5990    -3.6400 hc         1 QIE       0.067200
     32 H6           0.4800    -9.4400    -5.1290 hc         1 QIE       0.067200
     33 H7           1.4800   -11.2570    -4.1820 h1         1 QIE       0.052700
     34 H8           0.4950   -11.8890    -2.8510 h1         1 QIE       0.052700
     35 H9           1.9250   -13.7950    -3.2980 hc         1 QIE       0.059700
     36 H10          1.9460   -13.4500    -5.0330 hc         1 QIE       0.059700
     37 H11         -0.3990   -14.5140    -3.3920 hc         1 QIE       0.067200
     38 H12          0.2420   -15.2090    -4.8880 hc         1 QIE       0.067200
     39 H13         -0.7250   -13.4690    -6.2240 h1         1 QIE       0.070700
     40 H14         -2.5460   -14.4810    -6.5840 hn         1 QIE       0.171000
     41 H15         -7.9070   -16.0450    -6.0440 ha         1 QIE       0.142000
     42 H16         -7.2340   -14.8310    -3.9620 ha         1 QIE       0.126000
     43 H17         -4.9110   -13.9530    -3.7570 ha         1 QIE       0.162000
@<TRIPOS>BOND
     1     1     2 3   
     2     1     3 1   
     3     3     4 ar  
     4     3     5 ar  
     5     4     8 ar  
     6     4    27 1   
     7     5     6 ar  
     8     5    28 1   
     9     6     7 ar  
    10     6    29 1   
    11     7     8 ar  
    12     7    30 1   
    13     8     9 1   
    14     9    10 1   
    15     9    31 1   
    16     9    32 1   
    17    10    11 2   
    18    10    12 1   
    19    12    13 1   
    20    12    16 1   
    21    13    14 1   
    22    13    33 1   
    23    13    34 1   
    24    14    15 1   
    25    14    35 1   
    26    14    36 1   
    27    15    16 1   
    28    15    37 1   
    29    15    38 1   
    30    16    17 1   
    31    16    39 1   
    32    17    18 2   
    33    17    19 1   
    34    19    20 1   
    35    19    40 1   
    36    20    21 ar  
    37    20    26 ar  
    38    21    22 ar  
    39    22    23 1   
    40    22    24 ar  
    41    24    25 ar  
    42    24    41 1   
    43    25    26 ar  
    44    25    42 1   
    45    26    43 1   
@<TRIPOS>SUBSTRUCTURE
     1 QIE         1 TEMP              0 ****  ****    0 ROOT
