@<TRIPOS>MOLECULE
QIG
   43    47     1     0     0
SMALL
No Charge or Current Charge


@<TRIPOS>ATOM
      1 C1           0.4460     4.9350    -0.0150 c3         1 QIG      -0.141400
      2 C2          -0.9110     4.2580    -0.0560 ca         1 QIG       0.347300
      3 C3          -2.0980     5.0090    -0.0940 ca         1 QIG      -0.150000
      4 C4          -3.3290     4.3370    -0.1250 ca         1 QIG      -0.085000
      5 C5          -3.3180     2.9330    -0.1140 ca         1 QIG      -0.121000
      6 C6          -2.0840     2.2270    -0.0740 cp         1 QIG       0.298000
      7 N7          -0.9050     2.9070    -0.0430 nb         1 QIG      -0.646000
      8 C8          -2.0270     0.7090    -0.0570 cp         1 QIG       0.138000
      9 N9          -0.8130     0.1140    -0.0540 nb         1 QIG      -0.247000
     10 C10         -0.7570    -1.2270    -0.0140 ca         1 QIG       0.409900
     11 N11          0.5140    -1.8100    -0.0440 nu         1 QIG      -0.924900
     12 C12          1.8230    -1.3220     0.0980 ca         1 QIG       0.270000
     13 C13          2.1230    -0.1380     0.8280 ca         1 QIG      -0.076000
     14 C14          3.4560     0.3150     0.9620 ca         1 QIG      -0.113000
     15 C15          4.4640    -0.4450     0.3600 ca         1 QIG      -0.056200
     16 N16          5.8320    -0.2450     0.3340 na         1 QIG      -0.062400
     17 N18          6.4620    -1.2780    -0.3870 nc         1 QIG      -0.515100
     18 C19          5.4610    -2.0840    -0.7830 cd         1 QIG       0.346800
     19 C20          4.1870    -1.5820    -0.3250 ca         1 QIG      -0.208900
     20 C21          2.8790    -2.0640    -0.4780 ca         1 QIG      -0.106000
     21 C22         -1.9370    -2.0080     0.0040 ca         1 QIG      -0.173000
     22 C23         -1.9250    -3.4230     0.0410 ca         1 QIG      -0.074000
     23 C24         -3.1340    -4.1370     0.0570 ca         1 QIG      -0.122000
     24 C25         -4.3580    -3.4510     0.0400 ca         1 QIG      -0.082000
     25 C26         -4.3730    -2.0470     0.0070 ca         1 QIG      -0.097000
     26 C27         -3.1720    -1.3140    -0.0100 ca         1 QIG       0.058000
     27 N28         -3.1970     0.0330    -0.0390 nb         1 QIG      -0.214000
     28 H1           0.8070     5.0170     1.0170 hc         1 QIG       0.049700
     29 H1A          1.1910     4.3730    -0.5900 hc         1 QIG       0.049700
     30 H1B          0.3990     5.9460    -0.4350 hc         1 QIG       0.049700
     31 H3          -2.0620     6.0950    -0.0990 ha         1 QIG       0.122000
     32 H4          -4.2670     4.8890    -0.1550 ha         1 QIG       0.120000
     33 H5          -4.2620     2.3950    -0.1380 ha         1 QIG       0.147000
     34 HN11         0.4800    -2.7910    -0.3130 hn         1 QIG       0.496000
     35 H13          1.3290     0.4250     1.3080 ha         1 QIG       0.178000
     36 H14          3.6860     1.2200     1.5190 ha         1 QIG       0.122000
     37 HN16         6.3480     0.5240     0.7620 hn         1 QIG       0.376000
     38 H19          5.6900    -2.9680    -1.3650 h4         1 QIG       0.048800
     39 H21          2.6870    -2.9780    -1.0330 ha         1 QIG       0.113000
     40 H23         -0.9920    -3.9810     0.0630 ha         1 QIG       0.106000
     41 H24         -3.1220    -5.2240     0.0860 ha         1 QIG       0.118000
     42 H25         -5.2940    -4.0050     0.0530 ha         1 QIG       0.118000
     43 H26         -5.3260    -1.5220    -0.0040 ha         1 QIG       0.134000
@<TRIPOS>BOND
     1     1     2 1   
     2     1    28 1   
     3     1    29 1   
     4     1    30 1   
     5     2     3 ar  
     6     2     7 ar  
     7     3     4 ar  
     8     3    31 1   
     9     4     5 ar  
    10     4    32 1   
    11     5     6 ar  
    12     5    33 1   
    13     6     7 ar  
    14     6     8 1   
    15     8     9 ar  
    16     8    27 ar  
    17     9    10 ar  
    18    10    11 1   
    19    10    21 ar  
    20    11    12 1   
    21    11    34 1   
    22    12    13 ar  
    23    12    20 ar  
    24    13    14 ar  
    25    13    35 1   
    26    14    15 ar  
    27    14    36 1   
    28    15    16 1   
    29    15    19 ar  
    30    16    17 1   
    31    16    37 1   
    32    17    18 2   
    33    18    19 1   
    34    18    38 1   
    35    19    20 ar  
    36    20    39 1   
    37    21    22 ar  
    38    21    26 ar  
    39    22    23 ar  
    40    22    40 1   
    41    23    24 ar  
    42    23    41 1   
    43    24    25 ar  
    44    24    42 1   
    45    25    26 ar  
    46    25    43 1   
    47    26    27 ar  
@<TRIPOS>SUBSTRUCTURE
     1 QIG         1 TEMP              0 ****  ****    0 ROOT
