@<TRIPOS>MOLECULE
QIG
   43    47     1     0     0
SMALL
abcg2


@<TRIPOS>ATOM
      1 C1           0.5150     4.7420     0.2300 c3         1 QIG      -0.141400
      2 C2          -0.8410     4.1090     0.1470 ca         1 QIG       0.347300
      3 C3          -2.0030     4.8780     0.1250 ca         1 QIG      -0.150000
      4 C4          -3.2290     4.2360     0.0640 ca         1 QIG      -0.085000
      5 C5          -3.2650     2.8530     0.0260 ca         1 QIG      -0.121000
      6 C6          -2.0560     2.1650     0.0490 cp         1 QIG       0.298000
      7 N7          -0.8810     2.7820     0.1070 nb         1 QIG      -0.646000
      8 C8          -2.0330     0.6770     0.0070 cp         1 QIG       0.138000
      9 N9          -0.8190     0.1110     0.0080 nb         1 QIG      -0.247000
     10 C10         -0.7280    -1.1960    -0.0270 ca         1 QIG       0.409900
     11 N11          0.4870    -1.7780    -0.0250 nu         1 QIG      -0.924900
     12 C12          1.7760    -1.2220    -0.0020 ca         1 QIG       0.270000
     13 C13          2.0380     0.1730     0.0400 ca         1 QIG      -0.076000
     14 C14          3.3260     0.6580     0.0600 ca         1 QIG      -0.113000
     15 C15          4.3770    -0.2610     0.0400 ca         1 QIG      -0.056200
     16 N16          5.7240    -0.1180     0.0510 na         1 QIG      -0.062400
     17 N18          6.3550    -1.2920     0.0220 nc         1 QIG      -0.515100
     18 C19          5.4330    -2.2220    -0.0100 cd         1 QIG       0.346800
     19 C20          4.1350    -1.6430    -0.0010 ca         1 QIG      -0.208900
     20 C21          2.8240    -2.1260    -0.0220 ca         1 QIG      -0.106000
     21 C22         -1.9140    -2.0150    -0.0680 ca         1 QIG      -0.173000
     22 C23         -1.9330    -3.4200    -0.1130 ca         1 QIG      -0.074000
     23 C24         -3.1260    -4.0980    -0.1490 ca         1 QIG      -0.122000
     24 C25         -4.3400    -3.3900    -0.1420 ca         1 QIG      -0.082000
     25 C26         -4.3460    -2.0200    -0.1000 ca         1 QIG      -0.097000
     26 C27         -3.1330    -1.3030    -0.0640 ca         1 QIG       0.058000
     27 N28         -3.1780     0.0530    -0.0260 nb         1 QIG      -0.214000
     28 H1           0.9840     4.5140     1.1890 hc         1 QIG       0.049700
     29 H1A          1.1720     4.3540    -0.5490 hc         1 QIG       0.049700
     30 H1B          0.4620     5.8250     0.1310 hc         1 QIG       0.049700
     31 H3          -1.9420     5.9580     0.1540 ha         1 QIG       0.122000
     32 H4          -4.1470     4.8090     0.0450 ha         1 QIG       0.120000
     33 H5          -4.2000     2.3140    -0.0230 ha         1 QIG       0.147000
     34 HN11         0.4920    -2.7850    -0.0440 hn         1 QIG       0.496000
     35 H13          1.2140     0.8700     0.0560 ha         1 QIG       0.178000
     36 H14          3.5040     1.7250     0.0910 ha         1 QIG       0.122000
     37 HN16         6.2570     0.7350     0.0800 hn         1 QIG       0.376000
     38 H19          5.7040    -3.2660    -0.0380 h4         1 QIG       0.048800
     39 H21          2.6370    -3.1930    -0.0540 ha         1 QIG       0.113000
     40 H23         -1.0180    -3.9990    -0.1210 ha         1 QIG       0.106000
     41 H24         -3.1320    -5.1780    -0.1820 ha         1 QIG       0.118000
     42 H25         -5.2750    -3.9340    -0.1720 ha         1 QIG       0.118000
     43 H26         -5.2730    -1.4620    -0.0960 ha         1 QIG       0.134000
@<TRIPOS>BOND
     1     1     2 1   
     2     1    28 1   
     3     1    29 1   
     4     1    30 1   
     5     2     3 ar  
     6     2     7 ar  
     7     3     4 ar  
     8     3    31 1   
     9     4     5 ar  
    10     4    32 1   
    11     5     6 ar  
    12     5    33 1   
    13     6     7 ar  
    14     6     8 1   
    15     8     9 ar  
    16     8    27 ar  
    17     9    10 ar  
    18    10    11 1   
    19    10    21 ar  
    20    11    12 1   
    21    11    34 1   
    22    12    13 ar  
    23    12    20 ar  
    24    13    14 ar  
    25    13    35 1   
    26    14    15 ar  
    27    14    36 1   
    28    15    16 1   
    29    15    19 ar  
    30    16    17 1   
    31    16    37 1   
    32    17    18 2   
    33    18    19 1   
    34    18    38 1   
    35    19    20 ar  
    36    20    39 1   
    37    21    22 ar  
    38    21    26 ar  
    39    22    23 ar  
    40    22    40 1   
    41    23    24 ar  
    42    23    41 1   
    43    24    25 ar  
    44    24    42 1   
    45    25    26 ar  
    46    25    43 1   
    47    26    27 ar  
@<TRIPOS>SUBSTRUCTURE
     1 QIG         1 TEMP              0 ****  ****    0 ROOT
