@<TRIPOS>MOLECULE
QIH
   66    70     1     0     0
SMALL
No Charge or Current Charge


@<TRIPOS>ATOM
      1 C1           1.2220    -1.6370     4.4530 c3         1 QIH      -0.091100
      2 C10         -0.2350     1.9110    -6.5780 ca         1 QIH      -0.300000
      3 C11         -0.7960     2.7920    -7.4910 ca         1 QIH       0.404000
      4 C12         -2.2810     4.8810    -7.5420 ca         1 QIH       0.328000
      5 C13         -1.4940     5.7040    -8.3760 ca         1 QIH      -0.138000
      6 C14         -2.0110     6.8990    -8.9130 ca         1 QIH      -0.095000
      7 C15         -3.3290     7.2860    -8.6230 ca         1 QIH      -0.109000
      8 C16         -4.1050     6.4820    -7.7760 ca         1 QIH      -0.097300
      9 C17         -3.5980     5.3180    -7.2230 ca         1 QIH      -0.095000
     10 C19         -5.8230     3.0240    -4.9690 c3         1 QIH      -0.169100
     11 C2           1.9490    -0.6810     3.4860 c3         1 QIH       0.168800
     12 C20         -5.8920     5.5400    -6.4500 c5         1 QIH       0.096000
     13 C21         -5.5410     6.7600    -7.3850 c5         1 QIH      -0.047100
     14 C22         -0.4140     2.7040    -8.8290 ca         1 QIH      -0.287000
     15 C23          0.5340     1.7450    -9.1950 ca         1 QIH       0.404900
     16 C24          1.5090     0.9470    -3.9910 ca         1 QIH      -0.084000
     17 C25          1.6920     0.7120    -2.6150 ca         1 QIH      -0.178000
     18 C26          1.7330    -2.1440    -0.0910 c6         1 QIH       0.216800
     19 C27          1.3710    -1.9670     1.4220 c6         1 QIH       0.152300
     20 C3           3.3430    -0.4400     1.4250 c6         1 QIH       0.152300
     21 C4           2.6360     0.2090     0.1880 c6         1 QIH       0.216800
     22 C5           1.8860    -0.5950    -2.1250 ca         1 QIH       0.338000
     23 C6           1.9020    -1.6610    -3.0460 ca         1 QIH      -0.178000
     24 C7           1.7220    -1.4270    -4.4220 ca         1 QIH      -0.084000
     25 C8           1.5080    -0.1240    -4.9050 ca         1 QIH       0.231000
     26 C9           0.7190     1.0120    -7.0430 ca         1 QIH       0.639900
     27 N1           2.4560    -1.3310     2.2530 n3         1 QIH      -0.726600
     28 N2           2.0680    -0.8290    -0.7410 nh         1 QIH      -0.850400
     29 N3           1.3450     0.0760    -6.2780 nu         1 QIH      -0.951900
     30 N5          -4.6290     4.7480    -6.3980 n          1 QIH      -0.215400
     31 N6           1.0970     0.8990    -8.3090 nb         1 QIH      -0.776000
     32 O1          -3.4600     3.3030    -4.9960 o          1 QIH      -0.619100
     33 H1           0.9550    -1.1070     5.3750 hc         1 QIH       0.038367
     34 H2           0.2980    -2.0260     4.0090 hc         1 QIH       0.038367
     35 H3           1.8670    -2.4830     4.7180 hc         1 QIH       0.038367
     36 H4          -0.5410     1.9180    -5.5400 ha         1 QIH       0.134000
     37 H5          -0.4710     5.4260    -8.6040 ha         1 QIH       0.130000
     38 H6          -1.3920     7.5190    -9.5580 ha         1 QIH       0.118000
     39 H7          -3.7390     8.2010    -9.0460 ha         1 QIH       0.118000
     40 H8          -5.6300     2.1360    -4.3580 hc         1 QIH       0.065700
     41 H9          -6.4300     3.7480    -4.4130 hc         1 QIH       0.065700
     42 H10         -6.4510     2.7930    -5.8370 hc         1 QIH       0.065700
     43 H11          1.2690     0.1410     3.2260 h1         1 QIH       0.030200
     44 H12          2.7920    -0.2390     4.0350 h1         1 QIH       0.030200
     45 H13         -6.1890     5.8850    -5.4510 h1         1 QIH       0.057200
     46 H14         -6.7150     4.9480    -6.8710 h1         1 QIH       0.057200
     47 H15         -5.6420     7.7130    -6.8540 hc         1 QIH       0.063700
     48 H16         -6.2040     6.8010    -8.2570 hc         1 QIH       0.063700
     49 H17         -0.8560     3.3390    -9.5880 ha         1 QIH       0.126000
     50 H18          0.8480     1.6410   -10.2330 h4         1 QIH       0.010100
     51 H19          1.3900     1.9680    -4.3410 ha         1 QIH       0.117500
     52 H20          1.6760     1.5560    -1.9320 ha         1 QIH       0.112500
     53 H21          0.8730    -2.6080    -0.5950 h1         1 QIH       0.046200
     54 H22          2.5820    -2.8380    -0.1800 h1         1 QIH       0.046200
     55 H23          0.4590    -1.3520     1.4640 h1         1 QIH       0.050950
     56 H24          1.1040    -2.9490     1.8390 h1         1 QIH       0.050950
     57 H25          4.1860    -1.0340     1.0430 h1         1 QIH       0.050950
     58 H26          3.7890     0.3550     2.0410 h1         1 QIH       0.050950
     59 H27          3.3760     0.8260    -0.3430 h1         1 QIH       0.046200
     60 H28          1.8380     0.8800     0.5390 h1         1 QIH       0.046200
     61 H29          2.0680    -2.6780    -2.7040 ha         1 QIH       0.112500
     62 H30          1.7410    -2.2650    -5.1140 ha         1 QIH       0.117500
     63 H32          1.7680    -0.6260    -6.8780 hn         1 QIH       0.499000
     64 H33         -2.2220     3.3900    -6.1880 hn         1 QIH       0.537000
     65 N4          -1.7570     3.6870    -7.0540 nu         1 QIH      -1.003000
     66 C18         -4.5300     3.7020    -5.4360 c          1 QIH       0.610100
@<TRIPOS>BOND
     1     1    11 1   
     2     1    33 1   
     3     1    34 1   
     4     1    35 1   
     5     2     3 ar  
     6     2    26 ar  
     7     2    36 1   
     8     3    14 ar  
     9     3    65 1   
    10     4     5 ar  
    11     4     9 ar  
    12     4    65 1   
    13     5     6 ar  
    14     5    37 1   
    15     6     7 ar  
    16     6    38 1   
    17     7     8 ar  
    18     7    39 1   
    19     8     9 ar  
    20     8    13 1   
    21     9    30 1   
    22    10    40 1   
    23    10    41 1   
    24    10    42 1   
    25    10    66 1   
    26    11    27 1   
    27    11    43 1   
    28    11    44 1   
    29    12    13 1   
    30    12    30 1   
    31    12    45 1   
    32    12    46 1   
    33    13    47 1   
    34    13    48 1   
    35    14    15 ar  
    36    14    49 1   
    37    15    31 ar  
    38    15    50 1   
    39    16    17 ar  
    40    16    25 ar  
    41    16    51 1   
    42    17    22 ar  
    43    17    52 1   
    44    18    19 1   
    45    18    28 1   
    46    18    53 1   
    47    18    54 1   
    48    19    27 1   
    49    19    55 1   
    50    19    56 1   
    51    20    21 1   
    52    20    27 1   
    53    20    57 1   
    54    20    58 1   
    55    21    28 1   
    56    21    59 1   
    57    21    60 1   
    58    22    23 ar  
    59    22    28 1   
    60    23    24 ar  
    61    23    61 1   
    62    24    25 ar  
    63    24    62 1   
    64    25    29 1   
    65    26    29 1   
    66    26    31 ar  
    67    29    63 1   
    68    30    66 1   
    69    32    66 2   
    70    64    65 1   
@<TRIPOS>SUBSTRUCTURE
     1 QIH         1 TEMP              0 ****  ****    0 ROOT
