@<TRIPOS>MOLECULE
QIH
   66    70     1     0     0
SMALL
abcg2


@<TRIPOS>ATOM
      1 C1           0.2700    -1.0480     3.8370 c3         1 QIH      -0.091100
      2 C10          0.2000     1.9040    -6.6100 ca         1 QIH      -0.300000
      3 C11         -0.5720     2.7810    -7.3780 ca         1 QIH       0.404000
      4 C12         -2.1150     4.7290    -7.2430 ca         1 QIH       0.328000
      5 C13         -1.5390     5.5730    -8.2070 ca         1 QIH      -0.138000
      6 C14         -2.2430     6.6270    -8.7690 ca         1 QIH      -0.095000
      7 C15         -3.5580     6.8900    -8.3830 ca         1 QIH      -0.109000
      8 C16         -4.1260     6.0950    -7.4050 ca         1 QIH      -0.097300
      9 C17         -3.4090     5.0530    -6.8110 ca         1 QIH      -0.095000
     10 C19         -4.9480     3.2040    -3.8430 c3         1 QIH      -0.169100
     11 C2           1.2160    -0.2590     2.9410 c3         1 QIH       0.168800
     12 C20         -5.6490     4.7580    -6.1730 c5         1 QIH       0.096000
     13 C21         -5.5200     6.1360    -6.8370 c5         1 QIH      -0.047100
     14 C22         -0.4580     2.7000    -8.7800 ca         1 QIH      -0.287000
     15 C23          0.4000     1.7540    -9.3040 ca         1 QIH       0.404900
     16 C24          2.1860     0.9420    -4.2710 ca         1 QIH      -0.084000
     17 C25          2.2240     0.7300    -2.9020 ca         1 QIH      -0.178000
     18 C26          1.4750    -1.9590    -0.3800 c6         1 QIH       0.216800
     19 C27          0.8580    -1.6220     0.9690 c6         1 QIH       0.152300
     20 C3           2.9510    -0.4110     1.2240 c6         1 QIH       0.152300
     21 C4           2.5440     0.2550    -0.0860 c6         1 QIH       0.216800
     22 C5           1.9770    -0.5460    -2.3510 ca         1 QIH       0.338000
     23 C6           1.6910    -1.5890    -3.2570 ca         1 QIH      -0.178000
     24 C7           1.6230    -1.3540    -4.6220 ca         1 QIH      -0.084000
     25 C8           1.8690    -0.0890    -5.1550 ca         1 QIH       0.231000
     26 C9           1.0480     0.9940    -7.2460 ca         1 QIH       0.639900
     27 N1           1.8460    -1.0890     1.9150 n3         1 QIH      -0.726600
     28 N2           2.0280    -0.7590    -0.9950 nh         1 QIH      -0.850400
     29 N3           1.8480     0.1120    -6.5550 nu         1 QIH      -0.951900
     30 N5          -4.2450     4.3830    -5.8670 n          1 QIH      -0.215400
     31 N6           1.1510     0.9130    -8.5870 nb         1 QIH      -0.776000
     32 O1          -2.6800     3.7650    -4.3340 o          1 QIH      -0.619100
     33 H1          -0.1140    -0.4040     4.6300 hc         1 QIH       0.038367
     34 H2          -0.5860    -1.4380     3.2840 hc         1 QIH       0.038367
     35 H3           0.7920    -1.8900     4.2980 hc         1 QIH       0.038367
     36 H4           0.1280     1.9310    -5.5320 ha         1 QIH       0.134000
     37 H5          -0.5230     5.3800    -8.5210 ha         1 QIH       0.130000
     38 H6          -1.7640     7.2420    -9.5200 ha         1 QIH       0.118000
     39 H7          -4.1230     7.6910    -8.8410 ha         1 QIH       0.118000
     40 H8          -4.4790     2.5410    -3.1200 hc         1 QIH       0.065700
     41 H9          -5.4760     3.9910    -3.3010 hc         1 QIH       0.065700
     42 H10         -5.6790     2.6510    -4.4310 hc         1 QIH       0.065700
     43 H11          0.6650     0.5850     2.4870 h1         1 QIH       0.030200
     44 H12          2.0120     0.1700     3.5530 h1         1 QIH       0.030200
     45 H13         -6.2490     4.7800    -5.2710 h1         1 QIH       0.057200
     46 H14         -6.0700     4.0270    -6.8660 h1         1 QIH       0.057200
     47 H15         -5.6110     6.9350    -6.0950 hc         1 QIH       0.063700
     48 H16         -6.2820     6.2950    -7.5980 hc         1 QIH       0.063700
     49 H17         -1.0380     3.3280    -9.4370 ha         1 QIH       0.126000
     50 H18          0.4880     1.6610   -10.3820 h4         1 QIH       0.010100
     51 H19          2.4030     1.9300    -4.6580 ha         1 QIH       0.117500
     52 H20          2.4460     1.5660    -2.2560 ha         1 QIH       0.112500
     53 H21          0.6850    -2.3580    -1.0150 h1         1 QIH       0.046200
     54 H22          2.2320    -2.7460    -0.2690 h1         1 QIH       0.046200
     55 H23          0.0500    -0.8910     0.7980 h1         1 QIH       0.050950
     56 H24          0.3930    -2.5210     1.3780 h1         1 QIH       0.050950
     57 H25          3.7420    -1.1350     1.0060 h1         1 QIH       0.050950
     58 H26          3.3780     0.3380     1.8910 h1         1 QIH       0.050950
     59 H27          3.4240     0.7270    -0.5270 h1         1 QIH       0.046200
     60 H28          1.8070     1.0490     0.0960 h1         1 QIH       0.046200
     61 H29          1.5280    -2.5940    -2.8960 ha         1 QIH       0.112500
     62 H30          1.3900    -2.1750    -5.2910 ha         1 QIH       0.117500
     63 H32          2.2050    -0.6400    -7.1260 hn         1 QIH       0.499000
     64 H33         -1.6250     3.4530    -5.7420 hn         1 QIH       0.537000
     65 N4          -1.4350     3.6280    -6.7270 nu         1 QIH      -1.003000
     66 C18         -3.8620     3.8050    -4.7010 c          1 QIH       0.610100
@<TRIPOS>BOND
     1     1    11 1   
     2     1    33 1   
     3     1    34 1   
     4     1    35 1   
     5     2     3 ar  
     6     2    26 ar  
     7     2    36 1   
     8     3    14 ar  
     9     3    65 1   
    10     4     5 ar  
    11     4     9 ar  
    12     4    65 1   
    13     5     6 ar  
    14     5    37 1   
    15     6     7 ar  
    16     6    38 1   
    17     7     8 ar  
    18     7    39 1   
    19     8     9 ar  
    20     8    13 1   
    21     9    30 1   
    22    10    40 1   
    23    10    41 1   
    24    10    42 1   
    25    10    66 1   
    26    11    27 1   
    27    11    43 1   
    28    11    44 1   
    29    12    13 1   
    30    12    30 1   
    31    12    45 1   
    32    12    46 1   
    33    13    47 1   
    34    13    48 1   
    35    14    15 ar  
    36    14    49 1   
    37    15    31 ar  
    38    15    50 1   
    39    16    17 ar  
    40    16    25 ar  
    41    16    51 1   
    42    17    22 ar  
    43    17    52 1   
    44    18    19 1   
    45    18    28 1   
    46    18    53 1   
    47    18    54 1   
    48    19    27 1   
    49    19    55 1   
    50    19    56 1   
    51    20    21 1   
    52    20    27 1   
    53    20    57 1   
    54    20    58 1   
    55    21    28 1   
    56    21    59 1   
    57    21    60 1   
    58    22    23 ar  
    59    22    28 1   
    60    23    24 ar  
    61    23    61 1   
    62    24    25 ar  
    63    24    62 1   
    64    25    29 1   
    65    26    29 1   
    66    26    31 ar  
    67    29    63 1   
    68    30    66 1   
    69    32    66 2   
    70    64    65 1   
@<TRIPOS>SUBSTRUCTURE
     1 QIH         1 TEMP              0 ****  ****    0 ROOT
