@<TRIPOS>MOLECULE
QIJ
   21    22     1     0     0
SMALL
No Charge or Current Charge


@<TRIPOS>ATOM
      1 C10         -1.2560    18.3620    32.4350 c          1 QIJ       0.729400
      2 N12          0.0750    18.1160    32.5250 nc         1 QIJ      -0.781100
      3 C13          0.7840    18.7390    33.4110 cd         1 QIJ       0.830500
      4 C03         -1.0060    21.5290    36.1130 c          1 QIJ       0.447700
      5 C05          0.4330    21.1780    36.1230 cc         1 QIJ       0.304200
      6 C07          0.2730    19.6920    34.3640 cd         1 QIJ      -0.244000
      7 C08         -1.0930    19.9500    34.2760 cc         1 QIJ       0.267200
      8 N02         -1.7380    20.8490    35.1230 n          1 QIJ      -0.300000
      9 N06          1.0890    20.3260    35.3290 nd         1 QIJ      -0.466300
     10 N09         -1.7780    19.2610    33.3030 ns         1 QIJ      -0.544600
     11 N14          2.0670    18.4080    33.4040 nv         1 QIJ      -1.008200
     12 O04         -1.5150    22.3310    36.8910 o          1 QIJ      -0.509000
     13 O11         -1.9570    17.8050    31.6160 o          1 QIJ      -0.522000
     14 H011        -3.5500    21.8500    35.7220 h1         1 QIJ       0.067367
     15 H012        -3.4250    21.4760    33.9910 h1         1 QIJ       0.067367
     16 H013        -3.7530    20.1730    35.1730 h1         1 QIJ       0.067367
     17 H051         1.0100    21.6920    36.8790 h4         1 QIJ       0.060800
     18 H091        -2.7720    19.4040    33.1890 hn         1 QIJ       0.451000
     19 H141         2.2430    17.4970    33.0060 hn         1 QIJ       0.515000
     20 H142         2.5500    18.6240    34.2650 hn         1 QIJ       0.515000
     21 C01         -3.1990    21.1040    34.9980 c3         1 QIJ       0.051300
@<TRIPOS>BOND
     1     1     2 1   
     2     1    10 1   
     3     1    13 2   
     4     2     3 2   
     5     3     6 1   
     6     3    11 1   
     7     4     5 1   
     8     4     8 1   
     9     4    12 2   
    10     5     9 2   
    11     5    17 1   
    12     6     7 2   
    13     6     9 1   
    14     7     8 1   
    15     7    10 1   
    16     8    21 1   
    17    10    18 1   
    18    11    19 1   
    19    11    20 1   
    20    14    21 1   
    21    15    21 1   
    22    16    21 1   
@<TRIPOS>SUBSTRUCTURE
     1 QIJ         1 TEMP              0 ****  ****    0 ROOT
