@<TRIPOS>MOLECULE
QIJ
   21    22     1     0     0
SMALL
abcg2


@<TRIPOS>ATOM
      1 C10         -1.2930    18.3410    32.4410 c          1 QIJ       0.729400
      2 N12          0.0220    18.0660    32.5630 nc         1 QIJ      -0.781100
      3 C13          0.7510    18.6720    33.4780 cd         1 QIJ       0.830500
      4 C03         -0.9770    21.4820    36.0670 c          1 QIJ       0.447700
      5 C05          0.4330    21.1150    36.0990 cc         1 QIJ       0.304200
      6 C07          0.2020    19.6430    34.3860 cd         1 QIJ      -0.244000
      7 C08         -1.1470    19.9190    34.2660 cc         1 QIJ       0.267200
      8 N02         -1.7300    20.8200    35.0910 n          1 QIJ      -0.300000
      9 N06          0.9710    20.2540    35.3110 nd         1 QIJ      -0.466300
     10 N09         -1.8610    19.2820    33.3220 ns         1 QIJ      -0.544600
     11 N14          2.0410    18.3830    33.5740 nv         1 QIJ      -1.008200
     12 O04         -1.4780    22.2940    36.8190 o          1 QIJ      -0.509000
     13 O11         -2.0240    17.8270    31.6160 o          1 QIJ      -0.522000
     14 H011        -3.4190    21.8640    35.7010 h1         1 QIJ       0.067367
     15 H012        -3.3860    21.4870    33.9790 h1         1 QIJ       0.067367
     16 H013        -3.7410    20.2110    35.1740 h1         1 QIJ       0.067367
     17 H051         1.0480    21.6090    36.8420 h4         1 QIJ       0.060800
     18 H091        -2.8490    19.4610    33.2030 hn         1 QIJ       0.451000
     19 H141         2.4550    17.7020    32.9610 hn         1 QIJ       0.515000
     20 H142         2.6190    18.8260    34.2690 hn         1 QIJ       0.515000
     21 C01         -3.1550    21.1070    34.9740 c3         1 QIJ       0.051300
@<TRIPOS>BOND
     1     1     2 1   
     2     1    10 1   
     3     1    13 2   
     4     2     3 2   
     5     3     6 1   
     6     3    11 1   
     7     4     5 1   
     8     4     8 1   
     9     4    12 2   
    10     5     9 2   
    11     5    17 1   
    12     6     7 2   
    13     6     9 1   
    14     7     8 1   
    15     7    10 1   
    16     8    21 1   
    17    10    18 1   
    18    11    19 1   
    19    11    20 1   
    20    14    21 1   
    21    15    21 1   
    22    16    21 1   
@<TRIPOS>SUBSTRUCTURE
     1 QIJ         1 TEMP              0 ****  ****    0 ROOT
