@<TRIPOS>MOLECULE
QIK
  126   133     1     0     0
SMALL
abcg2


@<TRIPOS>ATOM
      1 C1           8.3120     1.3080   -17.5870 c3         1 QIK      -0.123400
      2 C2           7.0000     1.0110   -16.9330 cc         1 QIK       0.302300
      3 N1           6.1130     2.0490   -16.7330 nc         1 QIK      -0.637000
      4 C3           5.0060     1.6380   -16.1870 cd         1 QIK       0.420300
      5 S1           4.9450    -0.0510   -15.8680 ss         1 QIK      -0.053400
      6 C4           6.5460    -0.2210   -16.5230 cd         1 QIK      -0.174000
      7 C5           7.2090    -1.5270   -16.5770 ca         1 QIK       0.000000
      8 C6           6.5040    -2.6820   -16.9360 ca         1 QIK      -0.097500
      9 C7           7.1390    -3.9140   -17.0040 ca         1 QIK      -0.090500
     10 C8           8.5670    -1.6560   -16.2620 ca         1 QIK      -0.097500
     11 C9           9.1960    -2.8900   -16.3340 ca         1 QIK      -0.090500
     12 C10          8.4980    -4.0320   -16.7180 ca         1 QIK      -0.081300
     13 C11          9.2070    -5.3680   -16.7590 c3         1 QIK       0.181000
     14 C12          8.9340    -6.2140   -18.0100 c3         1 QIK      -0.170400
     15 C13          9.4940    -5.6020   -19.2830 c          1 QIK       0.594100
     16 O1           9.5920    -4.3850   -19.4440 o          1 QIK      -0.613100
     17 N2           9.8640    -6.4840   -20.2310 ns         1 QIK      -0.507900
     18 C14         10.3310    -6.0660   -21.5450 c3         1 QIK       0.102000
     19 C15          9.1810    -5.7400   -22.5020 c3         1 QIK      -0.092400
     20 C16          9.5830    -4.9290   -23.7350 c3         1 QIK      -0.088400
     21 N3           8.8530    -6.1180   -15.5490 ns         1 QIK      -0.501900
     22 C17          9.6620    -7.0360   -14.9960 c          1 QIK       0.600100
     23 O2          10.7290    -7.3860   -15.4930 o          1 QIK      -0.609100
     24 C18          9.2090    -7.5530   -13.6320 c5         1 QIK       0.038700
     25 C19          9.9740    -6.8400   -12.5010 c5         1 QIK      -0.121400
     26 C20         10.1600    -7.9220   -11.4380 c5         1 QIK       0.150300
     27 O3           8.9660    -8.1420   -10.6820 oh         1 QIK      -0.656000
     28 C21         10.4040    -9.1730   -12.2670 c5         1 QIK       0.109000
     29 N4           9.5510    -8.9620   -13.4440 n          1 QIK      -0.390800
     30 C22          8.9820    -9.8980   -14.2220 c          1 QIK       0.618100
     31 O4           8.1830    -9.5990   -15.1110 o          1 QIK      -0.612100
     32 C23          9.3520   -11.3600   -13.9380 c3         1 QIK      -0.171000
     33 C24          9.3910   -12.1930   -15.2410 c3         1 QIK      -0.044700
     34 C25          9.6180   -13.6740   -14.9410 c3         1 QIK      -0.093100
     35 C26         10.4790   -11.6550   -16.1680 c3         1 QIK      -0.093100
     36 C27         10.5180    -5.6250   -24.7270 c3         1 QIK       0.097000
     37 N5          11.9090    -5.6740   -24.2960 ns         1 QIK      -0.500900
     38 C28         12.5770    -6.8010   -24.0040 c          1 QIK       0.596100
     39 O5          12.0550    -7.9190   -24.0040 o          1 QIK      -0.628100
     40 C29         14.0550    -6.6360   -23.6880 c3         1 QIK      -0.134400
     41 C30         14.4190    -7.3950   -22.4190 c3         1 QIK       0.100200
     42 N6          14.0570    -6.6140   -21.2270 n2         1 QIK      -0.581900
     43 C31         15.8730    -7.7140   -22.3130 cc         1 QIK       0.398800
     44 N7          16.9000    -7.2500   -22.9630 nd         1 QIK      -0.340000
     45 N8          18.0370    -7.8380   -22.4220 nd         1 QIK      -0.354000
     46 C32         17.6660    -8.6370   -21.4530 cc         1 QIK       0.417800
     47 C33         18.5620    -9.4510   -20.5970 c3         1 QIK      -0.127400
     48 N9          16.2940    -8.5970   -21.3390 na         1 QIK      -0.267800
     49 C34         15.4160    -9.2430   -20.4630 cc         1 QIK      -0.117200
     50 S2          15.5480   -10.9090   -20.0450 ss         1 QIK       0.235000
     51 C35         14.0780   -10.8400   -19.1270 cc         1 QIK      -0.200300
     52 C36         13.5780   -12.0610   -18.4230 c3         1 QIK      -0.020800
     53 C37         13.5160    -9.5920   -19.1520 cd         1 QIK      -0.058300
     54 C38         12.2130    -9.2680   -18.4840 c3         1 QIK      -0.036800
     55 C39         14.2940    -8.6590   -19.9190 cd         1 QIK      -0.207900
     56 C40         13.9980    -7.2210   -20.0990 cf         1 QIK       0.555500
     57 C41         13.6990    -6.4260   -18.8800 ca         1 QIK      -0.139900
     58 C42         12.9440    -5.2540   -18.9580 ca         1 QIK      -0.064000
     59 C43         12.6880    -4.4950   -17.8280 ca         1 QIK      -0.106000
     60 C44         13.2010    -4.9130   -16.6060 ca         1 QIK       0.139000
     61 CL1         12.8580    -3.9830   -15.1660 cl         1 QIK      -0.222000
     62 C45         13.9650    -6.0660   -16.4990 ca         1 QIK      -0.106000
     63 C46         14.2070    -6.8190   -17.6390 ca         1 QIK      -0.064000
     64 C47          6.7400   -12.5830   -11.6390 cc         1 QIK       0.286300
     65 C48          5.4060   -12.8640   -11.0370 c3         1 QIK      -0.134400
     66 C49          7.0280   -11.8640   -12.8340 cc         1 QIK      -0.228000
     67 C50          8.3810   -11.8940   -12.9350 cd         1 QIK       0.189300
     68 O6           8.8940   -12.5720   -11.8870 os         1 QIK      -0.105700
     69 N10          7.8380   -13.0100   -11.0660 nd         1 QIK      -0.359300
     70 H1           8.1780     2.0780   -18.3460 hc         1 QIK       0.054367
     71 H2           9.0390     1.6810   -16.8600 hc         1 QIK       0.054367
     72 H3           8.7340     0.4200   -18.0550 hc         1 QIK       0.054367
     73 H4           4.1720     2.2810   -15.9450 h5         1 QIK       0.053100
     74 H5           5.4520    -2.6110   -17.1860 ha         1 QIK       0.118500
     75 H6           6.5650    -4.7830   -17.3000 ha         1 QIK       0.117000
     76 H7           9.1300    -0.7890   -15.9450 ha         1 QIK       0.118500
     77 H8          10.2480    -2.9660   -16.0910 ha         1 QIK       0.117000
     78 H9          10.2800    -5.1910   -16.7050 h1         1 QIK       0.082700
     79 H10          7.8590    -6.3520   -18.1480 hc         1 QIK       0.071700
     80 H11          9.3620    -7.2050   -17.8580 hc         1 QIK       0.071700
     81 H12          9.7480    -7.4680   -20.0510 hn         1 QIK       0.315500
     82 H13         10.9540    -6.8660   -21.9350 h1         1 QIK       0.062700
     83 H14         10.9580    -5.1850   -21.4150 h1         1 QIK       0.062700
     84 H15          8.4370    -5.1640   -21.9470 hc         1 QIK       0.047700
     85 H16          8.6950    -6.6700   -22.8140 hc         1 QIK       0.047700
     86 H17         10.0380    -3.9840   -23.4210 hc         1 QIK       0.048200
     87 H18          8.6730    -4.6660   -24.2820 hc         1 QIK       0.048200
     88 H19          7.9730    -5.9080   -15.1040 hn         1 QIK       0.320500
     89 H20          8.1310    -7.4250   -13.5230 h1         1 QIK       0.074700
     90 H21         10.9540    -6.5170   -12.8580 hc         1 QIK       0.070700
     91 H22          9.4380    -5.9700   -12.1270 hc         1 QIK       0.070700
     92 H23         10.9990    -7.7090   -10.7740 h1         1 QIK       0.059700
     93 H24          8.7290    -7.3170   -10.2410 ho         1 QIK       0.445000
     94 H25         10.1230   -10.0660   -11.7170 h1         1 QIK       0.071700
     95 H26         11.4550    -9.2430   -12.5560 h1         1 QIK       0.071700
     96 H27         10.3440   -11.4050   -13.4870 hc         1 QIK       0.080700
     97 H28          8.4210   -12.0760   -15.7280 hc         1 QIK       0.072700
     98 H29          8.8170   -14.0950   -14.3310 hc         1 QIK       0.039700
     99 H30          9.6620   -14.2400   -15.8730 hc         1 QIK       0.039700
    100 H31         10.5630   -13.8240   -14.4110 hc         1 QIK       0.039700
    101 H32         10.3240   -10.6030   -16.4070 hc         1 QIK       0.039700
    102 H33         11.4650   -11.7560   -15.7060 hc         1 QIK       0.039700
    103 H34         10.4920   -12.2130   -17.1050 hc         1 QIK       0.039700
    104 H35         10.4840    -5.0960   -25.6830 h1         1 QIK       0.058200
    105 H36         10.1970    -6.6510   -24.9020 h1         1 QIK       0.058200
    106 H37         12.4130    -4.8020   -24.2480 hn         1 QIK       0.315500
    107 H38         14.6000    -7.0620   -24.5320 hc         1 QIK       0.083700
    108 H39         14.3400    -5.5890   -23.5970 hc         1 QIK       0.083700
    109 H40         13.8790    -8.3490   -22.4240 h1         1 QIK       0.090700
    110 H43         19.5930    -9.1600   -20.7920 hc         1 QIK       0.064700
    111 H44         18.3390    -9.2940   -19.5410 hc         1 QIK       0.064700
    112 H45         18.4560   -10.5170   -20.8100 hc         1 QIK       0.064700
    113 H48         14.1800   -12.9370   -18.6620 hc         1 QIK       0.051033
    114 H49         13.5960   -11.9220   -17.3390 hc         1 QIK       0.051033
    115 H50         12.5460   -12.2710   -18.7080 hc         1 QIK       0.051033
    116 H51         11.5300   -10.1150   -18.5440 hc         1 QIK       0.054367
    117 H52         12.3490    -9.0320   -17.4270 hc         1 QIK       0.054367
    118 H53         11.7320    -8.4100   -18.9510 hc         1 QIK       0.054367
    119 H55         12.5440    -4.9430   -19.9110 ha         1 QIK       0.131000
    120 H56         12.0840    -3.6020   -17.8920 ha         1 QIK       0.135000
    121 H57         14.3580    -6.3760   -15.5410 ha         1 QIK       0.135000
    122 H58         14.8020    -7.7180   -17.5580 ha         1 QIK       0.131000
    123 H59          5.5130   -13.4440   -10.1210 hc         1 QIK       0.057700
    124 H60          4.8910   -11.9290   -10.8060 hc         1 QIK       0.057700
    125 H61          4.7820   -13.4200   -11.7390 hc         1 QIK       0.057700
    126 H62          6.3290   -11.4000   -13.5070 ha         1 QIK       0.161000
@<TRIPOS>BOND
     1     1     2 1   
     2     1    70 1   
     3     1    71 1   
     4     1    72 1   
     5     2     3 1   
     6     2     6 2   
     7     3     4 2   
     8     4     5 1   
     9     4    73 1   
    10     5     6 1   
    11     6     7 1   
    12     7     8 ar  
    13     7    10 ar  
    14     8     9 ar  
    15     8    74 1   
    16     9    12 ar  
    17     9    75 1   
    18    10    11 ar  
    19    10    76 1   
    20    11    12 ar  
    21    11    77 1   
    22    12    13 1   
    23    13    14 1   
    24    13    21 1   
    25    13    78 1   
    26    14    15 1   
    27    14    79 1   
    28    14    80 1   
    29    15    16 2   
    30    15    17 1   
    31    17    18 1   
    32    17    81 1   
    33    18    19 1   
    34    18    82 1   
    35    18    83 1   
    36    19    20 1   
    37    19    84 1   
    38    19    85 1   
    39    20    36 1   
    40    20    86 1   
    41    20    87 1   
    42    21    22 1   
    43    21    88 1   
    44    22    23 2   
    45    22    24 1   
    46    24    25 1   
    47    24    29 1   
    48    24    89 1   
    49    25    26 1   
    50    25    90 1   
    51    25    91 1   
    52    26    27 1   
    53    26    28 1   
    54    26    92 1   
    55    27    93 1   
    56    28    29 1   
    57    28    94 1   
    58    28    95 1   
    59    29    30 1   
    60    30    31 2   
    61    30    32 1   
    62    32    33 1   
    63    32    67 1   
    64    32    96 1   
    65    33    34 1   
    66    33    35 1   
    67    33    97 1   
    68    34    98 1   
    69    34    99 1   
    70    34   100 1   
    71    35   101 1   
    72    35   102 1   
    73    35   103 1   
    74    36    37 1   
    75    36   104 1   
    76    36   105 1   
    77    37    38 1   
    78    37   106 1   
    79    38    39 2   
    80    38    40 1   
    81    40    41 1   
    82    40   107 1   
    83    40   108 1   
    84    41    42 1   
    85    41    43 1   
    86    41   109 1   
    87    42    56 2   
    88    43    44 2   
    89    43    48 1   
    90    44    45 1   
    91    45    46 2   
    92    46    47 1   
    93    46    48 1   
    94    47   110 1   
    95    47   111 1   
    96    47   112 1   
    97    48    49 1   
    98    49    50 1   
    99    49    55 2   
   100    50    51 1   
   101    51    52 1   
   102    51    53 2   
   103    52   113 1   
   104    52   114 1   
   105    52   115 1   
   106    53    54 1   
   107    53    55 1   
   108    54   116 1   
   109    54   117 1   
   110    54   118 1   
   111    55    56 1   
   112    56    57 1   
   113    57    58 ar  
   114    57    63 ar  
   115    58    59 ar  
   116    58   119 1   
   117    59    60 ar  
   118    59   120 1   
   119    60    61 1   
   120    60    62 ar  
   121    62    63 ar  
   122    62   121 1   
   123    63   122 1   
   124    64    65 1   
   125    64    66 1   
   126    64    69 2   
   127    65   123 1   
   128    65   124 1   
   129    65   125 1   
   130    66    67 2   
   131    66   126 1   
   132    67    68 1   
   133    68    69 1   
@<TRIPOS>SUBSTRUCTURE
     1 QIK         1 TEMP              0 ****  ****    0 ROOT
