@<TRIPOS>MOLECULE
QIK
  126   133     1     0     0
SMALL
No Charge or Current Charge


@<TRIPOS>ATOM
      1 C1           8.2030     1.7890   -17.2620 c3         1 QIK      -0.123400
      2 C2           7.0900     1.4130   -16.3220 cc         1 QIK       0.302300
      3 N1           6.3730     2.4600   -15.7970 nc         1 QIK      -0.637000
      4 C3           5.4000     2.0180   -15.0130 cd         1 QIK       0.420300
      5 S1           5.2750     0.2740   -14.8740 ss         1 QIK      -0.053400
      6 C4           6.6600     0.1450   -15.9570 cd         1 QIK      -0.174000
      7 C5           7.2620    -1.1890   -16.2340 ca         1 QIK       0.000000
      8 C6           6.4950    -2.3580   -16.0270 ca         1 QIK      -0.097500
      9 C7           7.0290    -3.6340   -16.2780 ca         1 QIK      -0.090500
     10 C8           8.5930    -1.3490   -16.6800 ca         1 QIK      -0.097500
     11 C9           9.1280    -2.6250   -16.9280 ca         1 QIK      -0.090500
     12 C10          8.3510    -3.7800   -16.7360 ca         1 QIK      -0.081300
     13 C11          8.9420    -5.1660   -16.9970 c3         1 QIK       0.181000
     14 C12          8.2380    -5.8980   -18.1630 c3         1 QIK      -0.170400
     15 C13          8.7150    -5.3350   -19.5000 c          1 QIK       0.594100
     16 O1           8.3580    -4.2440   -19.9190 o          1 QIK      -0.613100
     17 N2           9.5580    -6.1580   -20.2160 ns         1 QIK      -0.507900
     18 C14         10.1380    -5.8300   -21.5230 c3         1 QIK       0.102000
     19 C15          9.1020    -5.8990   -22.6670 c3         1 QIK      -0.092400
     20 C16          9.6060    -5.3680   -24.0330 c3         1 QIK      -0.088400
     21 N3           8.9210    -5.9340   -15.7550 ns         1 QIK      -0.501900
     22 C17          9.6330    -7.0920   -15.5240 c          1 QIK       0.600100
     23 O2          10.2890    -7.6650   -16.3830 o          1 QIK      -0.609100
     24 C18          9.4730    -7.4920   -14.0220 c5         1 QIK       0.038700
     25 C19         10.6080    -6.7940   -13.2110 c5         1 QIK      -0.121400
     26 C20         10.6730    -7.6420   -11.9190 c5         1 QIK       0.150300
     27 O3           9.5850    -7.3390   -11.0390 oh         1 QIK      -0.656000
     28 C21         10.5810    -9.0880   -12.4940 c5         1 QIK       0.109000
     29 N4           9.7390    -8.9220   -13.7060 n          1 QIK      -0.390800
     30 C22          8.9810    -9.9660   -14.2780 c          1 QIK       0.618100
     31 O4           8.0150    -9.7070   -14.9850 o          1 QIK      -0.612100
     32 C23          9.3630   -11.4300   -13.9700 c3         1 QIK      -0.171000
     33 C24          9.4590   -12.3140   -15.2530 c3         1 QIK      -0.044700
     34 C25          9.8540   -13.7750   -14.9230 c3         1 QIK      -0.093100
     35 C26         10.4360   -11.7170   -16.2930 c3         1 QIK      -0.093100
     36 C27         10.6460    -6.2560   -24.7490 c3         1 QIK       0.097000
     37 N5          11.9900    -6.1680   -24.1690 ns         1 QIK      -0.500900
     38 C28         12.9300    -7.1720   -24.2400 c          1 QIK       0.596100
     39 O5          12.7000    -8.2370   -24.7960 o          1 QIK      -0.628100
     40 C29         14.2960    -6.8560   -23.6330 c3         1 QIK      -0.134400
     41 C30         14.4990    -7.6330   -22.3110 c3         1 QIK       0.100200
     42 N6          13.6570    -7.0140   -21.2670 n2         1 QIK      -0.581900
     43 C31         15.9500    -7.7410   -21.8390 cc         1 QIK       0.398800
     44 N7          17.0410    -7.4420   -22.5350 nd         1 QIK      -0.340000
     45 N8          18.1490    -7.8570   -21.8140 nd         1 QIK      -0.354000
     46 C32         17.7300    -8.4400   -20.6990 cc         1 QIK       0.417800
     47 C33         18.6270    -8.9860   -19.6230 c3         1 QIK      -0.127400
     48 N9          16.3670    -8.2740   -20.6400 na         1 QIK      -0.267800
     49 C34         15.5330    -9.1840   -19.9700 cc         1 QIK      -0.117200
     50 S2          15.9460   -10.8230   -19.5170 ss         1 QIK       0.235000
     51 C35         14.2710   -11.0600   -19.0120 cc         1 QIK      -0.200300
     52 C36         13.8350   -12.3830   -18.4350 c3         1 QIK      -0.020800
     53 C37         13.4930    -9.9330   -19.2180 cd         1 QIK      -0.058300
     54 C38         12.0200    -9.8550   -18.8950 c3         1 QIK      -0.036800
     55 C39         14.2210    -8.8260   -19.7670 cd         1 QIK      -0.207900
     56 C40         13.6490    -7.4990   -20.0600 cf         1 QIK       0.555500
     57 C41         13.3230    -6.5810   -18.9310 ca         1 QIK      -0.139900
     58 C42         12.8490    -5.2660   -19.1660 ca         1 QIK      -0.064000
     59 C43         12.5630    -4.4020   -18.0950 ca         1 QIK      -0.106000
     60 C44         12.7450    -4.8330   -16.7740 ca         1 QIK       0.139000
     61 Cl1         12.3600    -3.7640   -15.4320 cl         1 QIK      -0.222000
     62 C45         13.2340    -6.1210   -16.5210 ca         1 QIK      -0.106000
     63 C46         13.5280    -6.9860   -17.5880 ca         1 QIK      -0.064000
     64 C47          6.7080   -12.7700   -11.8080 cc         1 QIK       0.286300
     65 C48          5.3100   -13.2120   -11.4870 c3         1 QIK      -0.134400
     66 C49          7.0720   -12.2740   -13.0680 cc         1 QIK      -0.228000
     67 C50          8.3920   -11.9880   -12.9640 cd         1 QIK       0.189300
     68 O6           8.8270   -12.2920   -11.7000 os         1 QIK      -0.105700
     69 N10          7.7100   -12.8060   -10.9460 nd         1 QIK      -0.359300
     70 H1           8.0590     2.7990   -17.6660 hc         1 QIK       0.054367
     71 H2           9.1710     1.7770   -16.7480 hc         1 QIK       0.054367
     72 H3           8.2450     1.1060   -18.1180 hc         1 QIK       0.054367
     73 H4           4.6990     2.6490   -14.4820 h5         1 QIK       0.053100
     74 H5           5.4650    -2.2950   -15.6890 ha         1 QIK       0.118500
     75 H6           6.4060    -4.5110   -16.1140 ha         1 QIK       0.117000
     76 H7           9.2510    -0.5000   -16.8080 ha         1 QIK       0.118500
     77 H8          10.1560    -2.7100   -17.2670 ha         1 QIK       0.117000
     78 H9           9.9990    -5.0480   -17.2710 h1         1 QIK       0.082700
     79 H10          7.1540    -5.7680   -18.0790 hc         1 QIK       0.071700
     80 H11          8.4780    -6.9650   -18.1200 hc         1 QIK       0.071700
     81 H12          9.7960    -7.0460   -19.7910 hn         1 QIK       0.315500
     82 H13         10.9560    -6.5320   -21.7250 h1         1 QIK       0.062700
     83 H14         10.5610    -4.8180   -21.4730 h1         1 QIK       0.062700
     84 H15          8.2230    -5.3070   -22.3850 hc         1 QIK       0.047700
     85 H16          8.7550    -6.9340   -22.7790 hc         1 QIK       0.047700
     86 H17         10.0000    -4.3510   -23.9180 hc         1 QIK       0.048200
     87 H18          8.7350    -5.2840   -24.6950 hc         1 QIK       0.048200
     88 H19          8.4240    -5.5380   -14.9680 hn         1 QIK       0.320500
     89 H20          8.4750    -7.2020   -13.6660 h1         1 QIK       0.074700
     90 H21         11.5650    -6.8410   -13.7450 hc         1 QIK       0.070700
     91 H22         10.4010    -5.7340   -13.0210 hc         1 QIK       0.070700
     92 H23         11.6270    -7.4940   -11.3920 h1         1 QIK       0.059700
     93 H24          9.7460    -6.4390   -10.6810 ho         1 QIK       0.445000
     94 H25         10.1360    -9.7790   -11.7650 h1         1 QIK       0.071700
     95 H26         11.5760    -9.4670   -12.7650 h1         1 QIK       0.071700
     96 H27         10.3510   -11.4390   -13.5010 hc         1 QIK       0.080700
     97 H28          8.4660   -12.3450   -15.7220 hc         1 QIK       0.072700
     98 H29          9.1130   -14.2500   -14.2690 hc         1 QIK       0.039700
     99 H30          9.9170   -14.3750   -15.8390 hc         1 QIK       0.039700
    100 H31         10.8290   -13.8130   -14.4230 hc         1 QIK       0.039700
    101 H32         10.0910   -10.7360   -16.6390 hc         1 QIK       0.039700
    102 H33         11.4390   -11.6000   -15.8660 hc         1 QIK       0.039700
    103 H34         10.5120   -12.3690   -17.1720 hc         1 QIK       0.039700
    104 H35         10.7150    -5.9430   -25.8000 h1         1 QIK       0.058200
    105 H36         10.3020    -7.2990   -24.7350 h1         1 QIK       0.058200
    106 H37         12.2660    -5.3130   -23.7010 hn         1 QIK       0.315500
    107 H38         15.0540    -7.1810   -24.3530 hc         1 QIK       0.083700
    108 H39         14.4000    -5.7820   -23.4400 hc         1 QIK       0.083700
    109 H40         14.1690    -8.6660   -22.4900 h1         1 QIK       0.090700
    110 H43         19.5700    -8.4300   -19.5880 hc         1 QIK       0.064700
    111 H44         18.1560    -8.9040   -18.6370 hc         1 QIK       0.064700
    112 H45         18.8630   -10.0390   -19.8110 hc         1 QIK       0.064700
    113 H48         14.6800   -13.0750   -18.3400 hc         1 QIK       0.051033
    114 H49         13.3990   -12.2490   -17.4380 hc         1 QIK       0.051033
    115 H50         13.0820   -12.8590   -19.0740 hc         1 QIK       0.051033
    116 H51         11.5260   -10.8230   -19.0340 hc         1 QIK       0.054367
    117 H52         11.8680    -9.5430   -17.8560 hc         1 QIK       0.054367
    118 H53         11.5010    -9.1350   -19.5390 hc         1 QIK       0.054367
    119 H55         12.7010    -4.9010   -20.1800 ha         1 QIK       0.131000
    120 H56         12.2030    -3.3960   -18.2930 ha         1 QIK       0.135000
    121 H57         13.3860    -6.4510   -15.4970 ha         1 QIK       0.135000
    122 H58         13.9170    -7.9740   -17.3550 ha         1 QIK       0.131000
    123 H59          5.2320   -13.5610   -10.4500 hc         1 QIK       0.057700
    124 H60          4.6030   -12.3850   -11.6200 hc         1 QIK       0.057700
    125 H61          5.0040   -14.0330   -12.1450 hc         1 QIK       0.057700
    126 H62          6.4240   -12.1510   -13.9280 ha         1 QIK       0.161000
@<TRIPOS>BOND
     1     1     2 1   
     2     1    70 1   
     3     1    71 1   
     4     1    72 1   
     5     2     3 1   
     6     2     6 2   
     7     3     4 2   
     8     4     5 1   
     9     4    73 1   
    10     5     6 1   
    11     6     7 1   
    12     7     8 ar  
    13     7    10 ar  
    14     8     9 ar  
    15     8    74 1   
    16     9    12 ar  
    17     9    75 1   
    18    10    11 ar  
    19    10    76 1   
    20    11    12 ar  
    21    11    77 1   
    22    12    13 1   
    23    13    14 1   
    24    13    21 1   
    25    13    78 1   
    26    14    15 1   
    27    14    79 1   
    28    14    80 1   
    29    15    16 2   
    30    15    17 1   
    31    17    18 1   
    32    17    81 1   
    33    18    19 1   
    34    18    82 1   
    35    18    83 1   
    36    19    20 1   
    37    19    84 1   
    38    19    85 1   
    39    20    36 1   
    40    20    86 1   
    41    20    87 1   
    42    21    22 1   
    43    21    88 1   
    44    22    23 2   
    45    22    24 1   
    46    24    25 1   
    47    24    29 1   
    48    24    89 1   
    49    25    26 1   
    50    25    90 1   
    51    25    91 1   
    52    26    27 1   
    53    26    28 1   
    54    26    92 1   
    55    27    93 1   
    56    28    29 1   
    57    28    94 1   
    58    28    95 1   
    59    29    30 1   
    60    30    31 2   
    61    30    32 1   
    62    32    33 1   
    63    32    67 1   
    64    32    96 1   
    65    33    34 1   
    66    33    35 1   
    67    33    97 1   
    68    34    98 1   
    69    34    99 1   
    70    34   100 1   
    71    35   101 1   
    72    35   102 1   
    73    35   103 1   
    74    36    37 1   
    75    36   104 1   
    76    36   105 1   
    77    37    38 1   
    78    37   106 1   
    79    38    39 2   
    80    38    40 1   
    81    40    41 1   
    82    40   107 1   
    83    40   108 1   
    84    41    42 1   
    85    41    43 1   
    86    41   109 1   
    87    42    56 2   
    88    43    44 2   
    89    43    48 1   
    90    44    45 1   
    91    45    46 2   
    92    46    47 1   
    93    46    48 1   
    94    47   110 1   
    95    47   111 1   
    96    47   112 1   
    97    48    49 1   
    98    49    50 1   
    99    49    55 2   
   100    50    51 1   
   101    51    52 1   
   102    51    53 2   
   103    52   113 1   
   104    52   114 1   
   105    52   115 1   
   106    53    54 1   
   107    53    55 1   
   108    54   116 1   
   109    54   117 1   
   110    54   118 1   
   111    55    56 1   
   112    56    57 1   
   113    57    58 ar  
   114    57    63 ar  
   115    58    59 ar  
   116    58   119 1   
   117    59    60 ar  
   118    59   120 1   
   119    60    61 1   
   120    60    62 ar  
   121    62    63 ar  
   122    62   121 1   
   123    63   122 1   
   124    64    65 1   
   125    64    66 1   
   126    64    69 2   
   127    65   123 1   
   128    65   124 1   
   129    65   125 1   
   130    66    67 2   
   131    66   126 1   
   132    67    68 1   
   133    68    69 1   
@<TRIPOS>SUBSTRUCTURE
     1 QIK         1 TEMP              0 ****  ****    0 ROOT
