@<TRIPOS>MOLECULE
QIL
   23    22     1     0     0
SMALL
bcc


@<TRIPOS>ATOM
      1 C           25.5960    20.3910    11.0520 c          1 QIL       0.924600
      2 N           24.8150    18.9770     9.2390 ns         1 QIL      -0.539900
      3 O           24.9470    21.3560    10.5970 o          1 QIL      -0.830800
      4 CA          25.9990    19.3170    10.0080 c3         1 QIL      -0.042300
      5 CB          27.1330    19.8220     9.0940 c3         1 QIL      -0.055700
      6 CG1         27.5400    18.7590     8.0720 c3         1 QIL      -0.077400
      7 CG2         28.3290    20.2770     9.9270 c3         1 QIL      -0.074100
      8 O1          24.8610    16.6960     9.3630 o          1 QIL      -0.657100
      9 OXT         25.9560    20.2070    12.2270 o          1 QIL      -0.830800
     10 H           24.2480    19.7570     8.9430 hn         1 QIL       0.320500
     11 HA          26.3370    18.4120    10.5170 h1         1 QIL       0.066700
     12 HB          26.7450    20.6900     8.5450 hc         1 QIL       0.046700
     13 HD11        28.7170    18.4690     6.2780 hc         1 QIL       0.017033
     14 HD12        28.1370    20.1160     6.4890 hc         1 QIL       0.017033
     15 HD13        29.4910    19.5260     7.4460 hc         1 QIL       0.017033
     16 HG12        27.9560    17.8960     8.6040 hc         1 QIL       0.036700
     17 HG13        26.6480    18.3970     7.5560 hc         1 QIL       0.036700
     18 HG21        29.1420    20.6360     9.2960 hc         1 QIL       0.027033
     19 HG22        28.0730    21.0930    10.6030 hc         1 QIL       0.027033
     20 HG23        28.7180    19.4540    10.5310 hc         1 QIL       0.027033
     21 HN          23.3880    17.7770     8.4700 h5         1 QIL      -0.032800
     22 CD1         28.5280    19.2460     7.0200 c3         1 QIL      -0.083100
     23 CN          24.3420    17.7480     9.0200 c          1 QIL       0.657900
@<TRIPOS>BOND
     1     1     3 1   
     2     1     4 1   
     3     1     9 1   
     4     2     4 1   
     5     2    10 1   
     6     2    23 1   
     7     4     5 1   
     8     4    11 1   
     9     5     6 1   
    10     5     7 1   
    11     5    12 1   
    12     6    16 1   
    13     6    17 1   
    14     6    22 1   
    15     7    18 1   
    16     7    19 1   
    17     7    20 1   
    18     8    23 2   
    19    13    22 1   
    20    14    22 1   
    21    15    22 1   
    22    21    23 1   
@<TRIPOS>SUBSTRUCTURE
     1 QIL         1 TEMP              0 ****  ****    0 ROOT
