@<TRIPOS>MOLECULE
QIL
   23    22     1     0     0
SMALL
No Charge or Current Charge


@<TRIPOS>ATOM
      1 C           25.5650    20.4680    11.0850 c          1 QIL       0.714000
      2 N           24.7540    18.9610     9.2830 ns         1 QIL      -0.472900
      3 O           25.0280    21.4950    10.6880 o          1 QIL      -0.725500
      4 CA          25.9660    19.3830    10.0340 c3         1 QIL      -0.042300
      5 CB          27.1300    19.8480     9.0960 c3         1 QIL      -0.055700
      6 CG1         27.4890    18.7830     8.0150 c3         1 QIL      -0.077400
      7 CG2         28.3760    20.2720     9.9190 c3         1 QIL      -0.074100
      8 O1          25.0250    16.6850     9.3910 o          1 QIL      -0.657100
      9 OXT         25.7100    20.2060    12.2710 o          1 QIL      -0.725500
     10 H           24.1280    19.6840     8.9450 hn         1 QIL       0.320500
     11 HA          26.3280    18.5200    10.6080 h1         1 QIL       0.066700
     12 HB          26.7780    20.7410     8.5630 hc         1 QIL       0.046700
     13 HD11        28.6520    18.4680     6.1990 hc         1 QIL       0.017033
     14 HD12        28.2990    20.1760     6.5340 hc         1 QIL       0.017033
     15 HD13        29.5470    19.3140     7.4690 hc         1 QIL       0.017033
     16 HG12        27.8160    17.8590     8.5080 hc         1 QIL       0.036700
     17 HG13        26.5890    18.5290     7.4420 hc         1 QIL       0.036700
     18 HG21        29.1520    20.7010     9.2760 hc         1 QIL       0.027033
     19 HG22        28.1240    21.0380    10.6610 hc         1 QIL       0.027033
     20 HG23        28.8040    19.4120    10.4480 hc         1 QIL       0.027033
     21 HN          23.4400    17.5990     8.4450 h5         1 QIL      -0.032800
     22 CD1         28.5640    19.2170     6.9950 c3         1 QIL      -0.083100
     23 CN          24.3810    17.6600     9.0210 c          1 QIL       0.590900
@<TRIPOS>BOND
     1     1     3 1   
     2     1     4 1   
     3     1     9 1   
     4     2     4 1   
     5     2    10 1   
     6     2    23 1   
     7     4     5 1   
     8     4    11 1   
     9     5     6 1   
    10     5     7 1   
    11     5    12 1   
    12     6    16 1   
    13     6    17 1   
    14     6    22 1   
    15     7    18 1   
    16     7    19 1   
    17     7    20 1   
    18     8    23 2   
    19    13    22 1   
    20    14    22 1   
    21    15    22 1   
    22    21    23 1   
@<TRIPOS>SUBSTRUCTURE
     1 QIL         1 TEMP              0 ****  ****    0 ROOT
