@<TRIPOS>MOLECULE
QIM
   45    48     1     0     0
SMALL
abcg2


@<TRIPOS>ATOM
      1 N1         -20.2920     5.2120    26.8200 ns         1 QIM      -0.173000
      2 C4         -17.2960     6.9270    25.3870 ca         1 QIM      -0.051000
      3 C5         -16.6450     5.7620    24.9140 ca         1 QIM       0.348900
      4 C6         -18.3260     4.4070    25.6750 ca         1 QIM       0.303900
      5 C7         -19.0520     5.4560    26.1830 ca         1 QIM      -0.059000
      6 C8         -20.5410     5.5070    28.1260 c          1 QIM       0.598100
      7 C10        -22.8420     6.4890    28.2970 c6         1 QIM      -0.107400
      8 C13        -22.5470     5.4590    32.3280 ca         1 QIM      -0.136000
      9 C15        -21.7720     3.2600    31.7940 ca         1 QIM       0.089000
     10 C17        -22.0470     4.8790    30.0290 ca         1 QIM      -0.147300
     11 CL         -21.3260     1.6410    32.3050 cl         1 QIM      -0.212000
     12 C14        -22.1980     4.1840    32.7420 ca         1 QIM      -0.060000
     13 C16        -21.6980     3.5980    30.4550 ca         1 QIM      -0.056000
     14 C12        -22.4680     5.8140    30.9800 ca         1 QIM       0.165100
     15 O3         -22.8470     7.0830    30.6670 os         1 QIM      -0.347100
     16 C11        -22.5590     7.5530    29.3360 c6         1 QIM       0.161600
     17 C9         -21.9800     5.2390    28.5670 c6         1 QIM      -0.082400
     18 O2         -19.7010     6.0040    28.8640 o          1 QIM      -0.566100
     19 N          -17.1400     4.5520    25.0360 nb         1 QIM      -0.634000
     20 C18        -18.5550     6.7760    26.0290 ca         1 QIM      -0.030000
     21 C3         -16.7400     8.2170    25.2180 ca         1 QIM      -0.091000
     22 C2         -17.4140     9.3250    25.6550 ca         1 QIM      -0.038000
     23 C19        -19.2470     7.9310    26.4540 ca         1 QIM       0.028000
     24 C1         -18.6780     9.1620    26.2650 ca         1 QIM      -0.254500
     25 S          -19.5670    10.6020    26.8210 sy         1 QIM       1.078500
     26 O          -19.2540    11.6990    25.9220 o          1 QIM      -0.532500
     27 O1         -20.9600    10.2410    27.0050 o          1 QIM      -0.532500
     28 C          -18.8580    10.9520    28.4090 c3         1 QIM      -0.338100
     29 H1         -20.9790     4.6750    26.3120 hn         1 QIM       0.161000
     30 H3         -18.7020     3.3950    25.7790 h4         1 QIM       0.026100
     31 H4         -22.6450     6.8890    27.3020 hc         1 QIM       0.067700
     32 H5         -23.8950     6.2040    28.3390 hc         1 QIM       0.067700
     33 H6         -22.8810     6.1970    33.0450 ha         1 QIM       0.135000
     34 H7         -22.2570     3.9130    33.7870 ha         1 QIM       0.133000
     35 H8         -21.3730     2.8670    29.7260 ha         1 QIM       0.123000
     36 H9         -21.5140     7.8690    29.3000 h1         1 QIM       0.070700
     37 H10        -23.1950     8.4250    29.1960 h1         1 QIM       0.070700
     38 H11        -22.3720     4.4090    27.9770 hc         1 QIM       0.067700
     39 H12        -15.7780     8.3140    24.7310 ha         1 QIM       0.126000
     40 H13        -17.0010    10.3160    25.5250 ha         1 QIM       0.137000
     41 H14        -20.2190     7.8520    26.9120 ha         1 QIM       0.141000
     42 H15        -19.0390    10.1000    29.0620 h1         1 QIM       0.106700
     43 H16        -17.7930    11.1340    28.2820 h1         1 QIM       0.106700
     44 H17        -19.3610    11.8440    28.7810 h1         1 QIM       0.106700
     45 H2         -15.6850     5.8620    24.4150 h4         1 QIM       0.028100
@<TRIPOS>BOND
     1     1     5 1   
     2     1     6 1   
     3     1    29 1   
     4     2     3 ar  
     5     2    20 ar  
     6     2    21 ar  
     7     3    19 ar  
     8     3    45 1   
     9     4     5 ar  
    10     4    19 ar  
    11     4    30 1   
    12     5    20 ar  
    13     6    17 1   
    14     6    18 2   
    15     7    16 1   
    16     7    17 1   
    17     7    31 1   
    18     7    32 1   
    19     8    12 ar  
    20     8    14 ar  
    21     8    33 1   
    22     9    11 1   
    23     9    12 ar  
    24     9    13 ar  
    25    10    13 ar  
    26    10    14 ar  
    27    10    17 1   
    28    12    34 1   
    29    13    35 1   
    30    14    15 1   
    31    15    16 1   
    32    16    36 1   
    33    16    37 1   
    34    17    38 1   
    35    20    23 ar  
    36    21    22 ar  
    37    21    39 1   
    38    22    24 ar  
    39    22    40 1   
    40    23    24 ar  
    41    23    41 1   
    42    24    25 1   
    43    25    26 2   
    44    25    27 2   
    45    25    28 1   
    46    28    42 1   
    47    28    43 1   
    48    28    44 1   
@<TRIPOS>SUBSTRUCTURE
     1 QIM         1 TEMP              0 ****  ****    0 ROOT
