@<TRIPOS>MOLECULE
QIM
   45    48     1     0     0
SMALL
No Charge or Current Charge


@<TRIPOS>ATOM
      1 N1         -20.2420     5.2510    26.8590 ns         1 QIM      -0.173000
      2 C4         -17.3010     6.9370    25.2360 ca         1 QIM      -0.051000
      3 C5         -16.7030     5.7800    24.6960 ca         1 QIM       0.348900
      4 C6         -18.3860     4.4260    25.5220 ca         1 QIM       0.303900
      5 C7         -19.0530     5.5140    26.1250 ca         1 QIM      -0.059000
      6 C8         -20.5730     5.6000    28.1590 c          1 QIM       0.598100
      7 C10        -23.0450     6.2660    28.2090 c6         1 QIM      -0.107400
      8 C13        -22.7770     5.4710    32.3720 ca         1 QIM      -0.136000
      9 C15        -21.5630     3.3990    31.9820 ca         1 QIM       0.089000
     10 C17        -22.0670     4.8820    30.1100 ca         1 QIM      -0.147300
     11 Cl         -20.8470     1.9140    32.5960 cl         1 QIM      -0.212000
     12 C14        -22.2040     4.2850    32.8640 ca         1 QIM      -0.060000
     13 C16        -21.4950     3.6930    30.6090 ca         1 QIM      -0.056000
     14 C12        -22.7030     5.7770    31.0040 ca         1 QIM       0.165100
     15 O3         -23.2950     6.9430    30.5580 os         1 QIM      -0.347100
     16 C11        -23.0100     7.4260    29.2260 c6         1 QIM       0.161600
     17 C9         -21.9990     5.1940    28.6080 c6         1 QIM      -0.082400
     18 O2         -19.7780     6.1450    28.9170 o          1 QIM      -0.566100
     19 N          -17.2340     4.5430    24.8240 nb         1 QIM      -0.634000
     20 C18        -18.5080     6.8150    25.9600 ca         1 QIM      -0.030000
     21 C3         -16.7070     8.2000    25.0480 ca         1 QIM      -0.091000
     22 C2         -17.3180     9.3520    25.5670 ca         1 QIM      -0.038000
     23 C19        -19.1310     7.9820    26.4580 ca         1 QIM       0.028000
     24 C1         -18.5370     9.2470    26.2670 ca         1 QIM      -0.254500
     25 S          -19.3360    10.7190    26.9370 sy         1 QIM       1.078500
     26 O          -18.8840    11.8940    26.1810 o          1 QIM      -0.532500
     27 O1         -20.7660    10.4380    27.1270 o          1 QIM      -0.532500
     28 C          -18.6230    10.8570    28.5730 c3         1 QIM      -0.338100
     29 H1         -20.9500     4.7310    26.3560 hn         1 QIM       0.161000
     30 H3         -18.7840     3.4160    25.6180 h4         1 QIM       0.026100
     31 H4         -22.8620     6.6410    27.1920 hc         1 QIM       0.067700
     32 H5         -24.0510     5.8250    28.2050 hc         1 QIM       0.067700
     33 H6         -23.2770     6.1560    33.0510 ha         1 QIM       0.135000
     34 H7         -22.2580     4.0510    33.9250 ha         1 QIM       0.133000
     35 H8         -21.0020     2.9970    29.9360 ha         1 QIM       0.123000
     36 H9         -22.0170     7.8990    29.2250 h1         1 QIM       0.070700
     37 H10        -23.7490     8.1950    28.9590 h1         1 QIM       0.070700
     38 H11        -22.2720     4.3110    28.0140 hc         1 QIM       0.067700
     39 H12        -15.7740     8.2900    24.4960 ha         1 QIM       0.126000
     40 H13        -16.8450    10.3220    25.4150 ha         1 QIM       0.137000
     41 H14        -20.0790     7.9190    26.9840 ha         1 QIM       0.141000
     42 H15        -18.8630     9.9440    29.1280 h1         1 QIM       0.106700
     43 H16        -17.5400    10.9700    28.4640 h1         1 QIM       0.106700
     44 H17        -19.0580    11.7340    29.0620 h1         1 QIM       0.106700
     45 H2         -15.7730     5.8470    24.1310 h4         1 QIM       0.028100
@<TRIPOS>BOND
     1     1     5 1   
     2     1     6 1   
     3     1    29 1   
     4     2     3 ar  
     5     2    20 ar  
     6     2    21 ar  
     7     3    19 ar  
     8     3    45 1   
     9     4     5 ar  
    10     4    19 ar  
    11     4    30 1   
    12     5    20 ar  
    13     6    17 1   
    14     6    18 2   
    15     7    16 1   
    16     7    17 1   
    17     7    31 1   
    18     7    32 1   
    19     8    12 ar  
    20     8    14 ar  
    21     8    33 1   
    22     9    11 1   
    23     9    12 ar  
    24     9    13 ar  
    25    10    13 ar  
    26    10    14 ar  
    27    10    17 1   
    28    12    34 1   
    29    13    35 1   
    30    14    15 1   
    31    15    16 1   
    32    16    36 1   
    33    16    37 1   
    34    17    38 1   
    35    20    23 ar  
    36    21    22 ar  
    37    21    39 1   
    38    22    24 ar  
    39    22    40 1   
    40    23    24 ar  
    41    23    41 1   
    42    24    25 1   
    43    25    26 2   
    44    25    27 2   
    45    25    28 1   
    46    28    42 1   
    47    28    43 1   
    48    28    44 1   
@<TRIPOS>SUBSTRUCTURE
     1 QIM         1 TEMP              0 ****  ****    0 ROOT
