@<TRIPOS>MOLECULE
QIO
   41    44     1     0     0
SMALL
No Charge or Current Charge


@<TRIPOS>ATOM
      1 C18        -48.4600   -29.3680     3.0640 ca         1 QIO      -0.041000
      2 C16        -50.6620   -29.5480     4.1390 ca         1 QIO       0.168000
      3 C17        -49.8600   -29.5450     2.9730 ca         1 QIO      -0.179000
      4 C15        -50.0900   -29.3640     5.4130 ca         1 QIO      -0.184000
      5 C14        -48.7040   -29.2000     5.4690 ca         1 QIO      -0.005200
      6 C13        -47.8880   -29.2160     4.3440 cp         1 QIO      -0.039000
      7 C12        -46.5160   -28.9900     4.7930 cp         1 QIO      -0.244000
      8 C11        -45.2830   -28.9190     4.1110 ca         1 QIO       0.446900
      9 C02        -45.3580   -26.9960    -0.0840 c3         1 QIO       0.027300
     10 C03        -44.4820   -25.7020     0.1170 c          1 QIO       0.685000
     11 C06        -44.6350   -28.3050     0.3910 c6         1 QIO      -0.068700
     12 C07        -45.3820   -29.6000    -0.0490 c6         1 QIO      -0.071400
     13 C08        -44.8870   -30.8010     0.7820 c6         1 QIO      -0.089400
     14 C09        -45.2290   -30.6060     2.2850 c6         1 QIO       0.223800
     15 C21        -46.5170   -28.7980     6.1770 ca         1 QIO       0.193500
     16 C23        -44.2710   -28.4560     6.1370 ca         1 QIO       0.187900
     17 C25        -44.2540   -28.3060     1.9100 c6         1 QIO       0.231800
     18 F19        -51.9980   -29.7110     4.0270 f          1 QIO      -0.198000
     19 N10        -45.1270   -29.1860     2.7410 nh         1 QIO      -0.732300
     20 N20        -47.8560   -28.9540     6.5560 na         1 QIO      -0.340300
     21 N22        -45.4030   -28.5290     6.8730 nb         1 QIO      -0.276000
     22 N24        -44.1530   -28.6420     4.8000 nb         1 QIO      -0.281000
     23 O01        -46.6670   -26.8420     0.5270 oh         1 QIO      -0.718000
     24 O04        -44.9370   -24.8180     0.8340 o          1 QIO      -0.718000
     25 O05        -43.4060   -25.6190    -0.4570 o          1 QIO      -0.718000
     26 H181       -47.8460   -29.3340     2.1690 ha         1 QIO       0.139000
     27 H171       -50.3260   -29.6700     2.0000 ha         1 QIO       0.127000
     28 H151       -50.7030   -29.3440     6.3100 ha         1 QIO       0.125000
     29 H021       -45.4900   -27.0910    -1.1710 h1         1 QIO       0.033700
     30 H061       -43.6800   -28.3020    -0.1530 hc         1 QIO       0.067700
     31 H071       -46.4670   -29.4910     0.0870 hc         1 QIO       0.037200
     32 H072       -45.2190   -29.7830    -1.1200 hc         1 QIO       0.037200
     33 H081       -45.3380   -31.7340     0.4170 hc         1 QIO       0.033200
     34 H082       -43.8010   -30.9120     0.6590 hc         1 QIO       0.033200
     35 H091       -46.2530   -30.9680     2.4530 h1         1 QIO       0.054700
     36 H092       -44.5660   -31.2480     2.8850 h1         1 QIO       0.054700
     37 H231       -43.3520   -28.2350     6.6780 h5         1 QIO       0.038100
     38 H251       -44.2730   -27.2770     2.2970 h1         1 QIO       0.062200
     39 H252       -43.2130   -28.6510     2.0050 h1         1 QIO       0.062200
     40 H201       -48.1710   -28.8840     7.5160 hn         1 QIO       0.357000
     41 H011       -46.6160   -25.9700     0.9910 ho         1 QIO       0.477000
@<TRIPOS>BOND
     1     1     3 ar  
     2     1     6 ar  
     3     1    26 1   
     4     2     3 ar  
     5     2     4 ar  
     6     2    18 1   
     7     3    27 1   
     8     4     5 ar  
     9     4    28 1   
    10     5     6 ar  
    11     5    20 1   
    12     6     7 1   
    13     7     8 ar  
    14     7    15 ar  
    15     8    19 1   
    16     8    22 ar  
    17     9    10 1   
    18     9    11 1   
    19     9    23 1   
    20     9    29 1   
    21    10    24 1   
    22    10    25 1   
    23    11    12 1   
    24    11    17 1   
    25    11    30 1   
    26    12    13 1   
    27    12    31 1   
    28    12    32 1   
    29    13    14 1   
    30    13    33 1   
    31    13    34 1   
    32    14    19 1   
    33    14    35 1   
    34    14    36 1   
    35    15    20 1   
    36    15    21 ar  
    37    16    21 ar  
    38    16    22 ar  
    39    16    37 1   
    40    17    19 1   
    41    17    38 1   
    42    17    39 1   
    43    20    40 1   
    44    23    41 1   
@<TRIPOS>SUBSTRUCTURE
     1 QIO         1 TEMP              0 ****  ****    0 ROOT
