@<TRIPOS>MOLECULE
QIO
   41    44     1     0     0
SMALL
abcg2


@<TRIPOS>ATOM
      1 C18        -48.8440   -29.3010     3.2450 ca         1 QIO      -0.041000
      2 C16        -50.7090   -29.7380     4.6910 ca         1 QIO       0.168000
      3 C17        -50.1980   -29.5640     3.4100 ca         1 QIO      -0.179000
      4 C15        -49.9460   -29.6390     5.8370 ca         1 QIO      -0.184000
      5 C14        -48.5950   -29.3670     5.6480 ca         1 QIO      -0.005200
      6 C13        -48.0040   -29.2250     4.3600 cp         1 QIO      -0.039000
      7 C12        -46.5980   -28.9320     4.5940 cp         1 QIO      -0.244000
      8 C11        -45.4140   -28.6790     3.8480 ca         1 QIO       0.446900
      9 C02        -44.9880   -27.2090    -0.2000 c3         1 QIO       0.027300
     10 C03        -44.5150   -25.8610     0.3970 c          1 QIO       0.685000
     11 C06        -44.1530   -28.3870     0.3350 c6         1 QIO      -0.068700
     12 C07        -44.6240   -29.7490    -0.2380 c6         1 QIO      -0.071400
     13 C08        -45.1310   -30.6880     0.8600 c6         1 QIO      -0.089400
     14 C09        -46.0330   -29.9360     1.8280 c6         1 QIO       0.223800
     15 C21        -46.4440   -28.8450     5.9970 ca         1 QIO       0.193500
     16 C23        -44.3550   -28.1180     5.8330 ca         1 QIO       0.187900
     17 C25        -44.0420   -28.4280     1.8610 c6         1 QIO       0.231800
     18 F19        -52.0380   -29.9990     4.8240 f          1 QIO      -0.198000
     19 N10        -45.2730   -28.8850     2.5180 nh         1 QIO      -0.732300
     20 N20        -47.6280   -29.1560     6.6060 na         1 QIO      -0.340300
     21 N22        -45.3450   -28.4650     6.6540 nb         1 QIO      -0.276000
     22 N24        -44.3290   -28.2040     4.5100 nb         1 QIO      -0.281000
     23 O01        -46.3840   -27.3640     0.0420 oh         1 QIO      -0.718000
     24 O04        -45.3670   -25.2560     1.1040 o          1 QIO      -0.718000
     25 O05        -43.3470   -25.4930     0.1470 o          1 QIO      -0.718000
     26 H181       -48.4660   -29.1420     2.2490 ha         1 QIO       0.139000
     27 H171       -50.8610   -29.6270     2.5580 ha         1 QIO       0.127000
     28 H151       -50.3850   -29.7500     6.8190 ha         1 QIO       0.125000
     29 H021       -44.8300   -27.1670    -1.2840 h1         1 QIO       0.033700
     30 H061       -43.1380   -28.1910    -0.0150 hc         1 QIO       0.067700
     31 H071       -45.4330   -29.5790    -0.9520 hc         1 QIO       0.037200
     32 H072       -43.8120   -30.2270    -0.7870 hc         1 QIO       0.037200
     33 H081       -45.7010   -31.5110     0.4240 hc         1 QIO       0.033200
     34 H082       -44.2950   -31.1330     1.4070 hc         1 QIO       0.033200
     35 H091       -46.8520   -29.4940     1.2600 h1         1 QIO       0.054700
     36 H092       -46.4460   -30.6110     2.5740 h1         1 QIO       0.054700
     37 H231       -43.4530   -27.7360     6.3030 h5         1 QIO       0.038100
     38 H251       -43.7970   -27.4440     2.2490 h1         1 QIO       0.062200
     39 H252       -43.2100   -29.0840     2.1380 h1         1 QIO       0.062200
     40 H201       -47.7830   -29.1170     7.6020 hn         1 QIO       0.357000
     41 H011       -46.5730   -26.6160     0.6430 ho         1 QIO       0.477000
@<TRIPOS>BOND
     1     1     3 ar  
     2     1     6 ar  
     3     1    26 1   
     4     2     3 ar  
     5     2     4 ar  
     6     2    18 1   
     7     3    27 1   
     8     4     5 ar  
     9     4    28 1   
    10     5     6 ar  
    11     5    20 1   
    12     6     7 1   
    13     7     8 ar  
    14     7    15 ar  
    15     8    19 1   
    16     8    22 ar  
    17     9    10 1   
    18     9    11 1   
    19     9    23 1   
    20     9    29 1   
    21    10    24 1   
    22    10    25 1   
    23    11    12 1   
    24    11    17 1   
    25    11    30 1   
    26    12    13 1   
    27    12    31 1   
    28    12    32 1   
    29    13    14 1   
    30    13    33 1   
    31    13    34 1   
    32    14    19 1   
    33    14    35 1   
    34    14    36 1   
    35    15    20 1   
    36    15    21 ar  
    37    16    21 ar  
    38    16    22 ar  
    39    16    37 1   
    40    17    19 1   
    41    17    38 1   
    42    17    39 1   
    43    20    40 1   
    44    23    41 1   
@<TRIPOS>SUBSTRUCTURE
     1 QIO         1 TEMP              0 ****  ****    0 ROOT
