@<TRIPOS>MOLECULE
QIP
   32    32     1     0     0
SMALL
abcg2


@<TRIPOS>ATOM
      1 O1          -9.0780   -22.2110    26.1680 oh         1 QIP      -0.660000
      2 CB1        -10.0270   -21.4270    23.6010 c3         1 QIP      -0.106700
      3 OB2         -7.1540   -22.7700    24.4220 o          1 QIP      -0.627100
      4 CG1        -11.4560   -21.2650    24.1260 c3         1 QIP       0.063600
      5 SD         -12.5880   -22.2520    23.0950 ss         1 QIP      -0.438000
      6 CE         -14.1470   -21.9180    23.9610 c3         1 QIP       0.045900
      7 C1          -8.7660   -20.8960    25.8400 c5         1 QIP       0.430500
      8 C2          -6.2150   -20.9390    25.7450 c          1 QIP       0.527100
      9 C3          -8.8590   -19.2770    27.5700 c          1 QIP       0.568000
     10 CA1         -9.0310   -20.5710    24.3350 c2         1 QIP       0.392300
     11 CA2         -6.2180   -21.9920    24.6140 c          1 QIP       0.540100
     12 CA3         -7.3910   -19.5620    27.3510 c5         1 QIP       0.005000
     13 N1          -8.4830   -19.5930    23.7470 n2         1 QIP      -0.717100
     14 N2          -5.0960   -21.9740    23.9060 nt         1 QIP      -0.556000
     15 N3          -7.3940   -20.5140    26.2460 n          1 QIP      -0.444800
     16 N           -9.5480   -20.0210    26.6760 ns         1 QIP      -0.520900
     17 O2          -5.1430   -20.5260    26.1690 o          1 QIP      -0.580100
     18 O3          -9.3290   -18.5130    28.3930 o          1 QIP      -0.519000
     19 H1          -8.5030   -22.7630    25.5970 ho         1 QIP       0.509000
     20 H8         -14.9280   -22.4640    23.4310 h1         1 QIP       0.062033
     21 H9         -14.0960   -22.2710    24.9900 h1         1 QIP       0.062033
     22 H10        -14.3770   -20.8530    23.9420 h1         1 QIP       0.062033
     23 H14         -6.9440   -19.9840    28.2530 h1         1 QIP       0.094200
     24 H15         -6.8560   -18.6490    27.0890 h1         1 QIP       0.094200
     25 H11         -7.8400   -19.0870    24.3570 hn         1 QIP       0.388400
     26 H           -4.9570   -22.6400    23.1610 hn         1 QIP       0.341000
     27 H2          -4.3490   -21.3470    24.1620 hn         1 QIP       0.341000
     28 H5          -9.7340   -22.4750    23.6740 hc         1 QIP       0.084700
     29 H7          -9.9840   -21.1360    22.5520 hc         1 QIP       0.084700
     30 H12        -11.7640   -20.2190    24.0860 h1         1 QIP       0.062700
     31 H13        -11.5400   -21.6210    25.1530 h1         1 QIP       0.062700
     32 H3         -10.5570   -20.0300    26.6430 hn         1 QIP       0.348500
@<TRIPOS>BOND
     1     1     7 1   
     2     1    19 1   
     3     2     4 1   
     4     2    10 1   
     5     2    28 1   
     6     2    29 1   
     7     3    11 2   
     8     4     5 1   
     9     4    30 1   
    10     4    31 1   
    11     5     6 1   
    12     6    20 1   
    13     6    21 1   
    14     6    22 1   
    15     7    10 1   
    16     7    15 1   
    17     7    16 1   
    18     8    11 1   
    19     8    15 1   
    20     8    17 2   
    21     9    12 1   
    22     9    16 1   
    23     9    18 2   
    24    10    13 2   
    25    11    14 1   
    26    12    15 1   
    27    12    23 1   
    28    12    24 1   
    29    13    25 1   
    30    14    26 1   
    31    14    27 1   
    32    16    32 1   
@<TRIPOS>SUBSTRUCTURE
     1 QIP         1 TEMP              0 ****  ****    0 ROOT
