@<TRIPOS>MOLECULE
QIP
   32    32     1     0     0
SMALL
No Charge or Current Charge


@<TRIPOS>ATOM
      1 O1          -8.9570   -22.2370    26.2620 oh         1 QIP      -0.660000
      2 CB1         -9.9920   -21.3130    23.6270 c3         1 QIP      -0.106700
      3 OB2         -7.0800   -22.9930    24.5570 o          1 QIP      -0.627100
      4 CG1        -11.4530   -21.2450    24.1110 c3         1 QIP       0.063600
      5 SD         -12.5380   -22.2610    23.0110 ss         1 QIP      -0.438000
      6 CE         -14.1730   -21.9840    23.8320 c3         1 QIP       0.045900
      7 C1          -8.7110   -20.8860    25.9470 c5         1 QIP       0.430500
      8 C2          -6.1450   -20.9530    25.7030 c          1 QIP       0.527100
      9 C3          -8.8900   -19.2390    27.6340 c          1 QIP       0.568000
     10 CA1         -9.0470   -20.4600    24.4590 c2         1 QIP       0.392300
     11 CA2         -6.1840   -22.1560    24.6200 c          1 QIP       0.540100
     12 CA3         -7.3980   -19.4590    27.3590 c5         1 QIP       0.005000
     13 N1          -8.5560   -19.3910    23.9190 n2         1 QIP      -0.717100
     14 N2          -5.1360   -22.2100    23.7560 nt         1 QIP      -0.556000
     15 N3          -7.3440   -20.4930    26.3050 n          1 QIP      -0.444800
     16 N           -9.5660   -20.0400    26.7480 ns         1 QIP      -0.520900
     17 O2          -5.0770   -20.4330    26.0200 o          1 QIP      -0.580100
     18 O3          -9.4290   -18.5110    28.4520 o          1 QIP      -0.519000
     19 H1          -8.3340   -22.7450    25.6770 ho         1 QIP       0.509000
     20 H8         -14.9570   -22.5310    23.2930 h1         1 QIP       0.062033
     21 H9         -14.1360   -22.3410    24.8700 h1         1 QIP       0.062033
     22 H10        -14.4170   -20.9140    23.8280 h1         1 QIP       0.062033
     23 H14         -6.9140   -19.7940    28.2850 h1         1 QIP       0.094200
     24 H15         -6.9520   -18.5110    27.0330 h1         1 QIP       0.094200
     25 H11         -7.9540   -18.9070    24.6010 hn         1 QIP       0.388400
     26 H           -5.0990   -22.9440    23.0650 hn         1 QIP       0.341000
     27 H2          -4.3900   -21.5320    23.8270 hn         1 QIP       0.341000
     28 H5          -9.6600   -22.3570    23.6300 hc         1 QIP       0.084700
     29 H7          -9.9600   -20.9920    22.5800 hc         1 QIP       0.084700
     30 H12        -11.8020   -20.2030    24.0970 h1         1 QIP       0.062700
     31 H13        -11.5300   -21.6270    25.1380 h1         1 QIP       0.062700
     32 H3         -10.5730   -20.1000    26.8090 hn         1 QIP       0.348500
@<TRIPOS>BOND
     1     1     7 1   
     2     1    19 1   
     3     2     4 1   
     4     2    10 1   
     5     2    28 1   
     6     2    29 1   
     7     3    11 2   
     8     4     5 1   
     9     4    30 1   
    10     4    31 1   
    11     5     6 1   
    12     6    20 1   
    13     6    21 1   
    14     6    22 1   
    15     7    10 1   
    16     7    15 1   
    17     7    16 1   
    18     8    11 1   
    19     8    15 1   
    20     8    17 2   
    21     9    12 1   
    22     9    16 1   
    23     9    18 2   
    24    10    13 2   
    25    11    14 1   
    26    12    15 1   
    27    12    23 1   
    28    12    24 1   
    29    13    25 1   
    30    14    26 1   
    31    14    27 1   
    32    16    32 1   
@<TRIPOS>SUBSTRUCTURE
     1 QIP         1 TEMP              0 ****  ****    0 ROOT
