@<TRIPOS>MOLECULE
QIQ
   33    35     1     0     0
SMALL
No Charge or Current Charge


@<TRIPOS>ATOM
      1 N1         -20.1180     5.3550    26.9250 ns         1 QIQ      -0.168000
      2 C4         -22.2470     5.5830    28.1420 c3         1 QIQ      -0.105100
      3 C5         -20.8120     6.0630    27.8940 c          1 QIQ       0.594100
      4 C6         -18.7930     5.5370    26.4410 ca         1 QIQ      -0.076000
      5 C7         -17.9110     4.4370    26.4870 ca         1 QIQ       0.305900
      6 C8         -16.1630     5.6650    25.6020 ca         1 QIQ       0.358900
      7 C10        -16.4340     8.0060    24.9540 ca         1 QIQ      -0.085000
      8 C13        -19.1310     7.9050    25.7460 ca         1 QIQ      -0.085000
      9 C15        -22.3550     3.3440    29.3690 ca         1 QIQ      -0.059000
     10 O          -20.3160     6.9840    28.5340 o          1 QIQ      -0.563100
     11 C3         -22.3280     4.7530    29.4230 ca         1 QIQ      -0.118300
     12 C2         -22.3670     5.3820    30.6880 ca         1 QIQ       0.359900
     13 N          -22.4330     4.6990    31.8560 nb         1 QIQ      -0.653000
     14 C1         -22.4600     3.3440    31.7910 ca         1 QIQ       0.354900
     15 C          -22.4220     2.6290    30.5760 ca         1 QIQ       0.065000
     16 Cl         -22.4580     0.8670    30.5610 cl         1 QIQ      -0.191000
     17 C14        -18.3160     6.7610    25.9060 ca         1 QIQ      -0.001000
     18 C12        -18.5960     9.0890    25.2100 ca         1 QIQ      -0.092000
     19 C11        -17.2480     9.1420    24.8190 ca         1 QIQ      -0.105000
     20 C9         -16.9670     6.8170    25.4880 ca         1 QIQ      -0.090000
     21 N2         -16.6220     4.4880    26.0850 nb         1 QIQ      -0.652000
     22 H1         -20.6180     4.5740    26.5190 hn         1 QIQ       0.155000
     23 H2         -22.8960     6.4620    28.2390 hc         1 QIQ       0.068200
     24 H3         -22.5870     4.9790    27.2920 hc         1 QIQ       0.068200
     25 H4         -18.2480     3.4780    26.8810 h4         1 QIQ       0.019100
     26 H5         -15.1210     5.6800    25.2850 h4         1 QIQ       0.022100
     27 H6         -15.3940     8.0500    24.6370 ha         1 QIQ       0.118000
     28 H7         -20.1810     7.8910    26.0210 ha         1 QIQ       0.121000
     29 H9         -22.3460     6.4680    30.7680 h4         1 QIQ       0.027100
     30 H10        -22.5120     2.8140    32.7410 h4         1 QIQ       0.037100
     31 H11        -19.2290     9.9660    25.0930 ha         1 QIQ       0.117000
     32 H12        -16.8370    10.0600    24.4040 ha         1 QIQ       0.118000
     33 H8         -22.3250     2.8150    28.4200 ha         1 QIQ       0.131000
@<TRIPOS>BOND
     1     1     3 1   
     2     1     4 1   
     3     1    22 1   
     4     2     3 1   
     5     2    11 1   
     6     2    23 1   
     7     2    24 1   
     8     3    10 2   
     9     4     5 ar  
    10     4    17 ar  
    11     5    21 ar  
    12     5    25 1   
    13     6    20 ar  
    14     6    21 ar  
    15     6    26 1   
    16     7    19 ar  
    17     7    20 ar  
    18     7    27 1   
    19     8    17 ar  
    20     8    18 ar  
    21     8    28 1   
    22     9    11 ar  
    23     9    15 ar  
    24     9    33 1   
    25    11    12 ar  
    26    12    13 ar  
    27    12    29 1   
    28    13    14 ar  
    29    14    15 ar  
    30    14    30 1   
    31    15    16 1   
    32    17    20 ar  
    33    18    19 ar  
    34    18    31 1   
    35    19    32 1   
@<TRIPOS>SUBSTRUCTURE
     1 QIQ         1 TEMP              0 ****  ****    0 ROOT
