@<TRIPOS>MOLECULE
QIQ
   33    35     1     0     0
SMALL
abcg2


@<TRIPOS>ATOM
      1 N1         -20.1530     5.1550    26.4850 ns         1 QIQ      -0.168000
      2 C4         -22.0750     5.1310    27.9660 c3         1 QIQ      -0.105100
      3 C5         -20.6160     5.4980    27.7150 c          1 QIQ       0.594100
      4 C6         -18.8280     5.4000    26.0420 ca         1 QIQ      -0.076000
      5 C7         -18.0060     4.3360    25.7650 ca         1 QIQ       0.305900
      6 C8         -16.2580     5.6780    25.1550 ca         1 QIQ       0.358900
      7 C10        -16.4580     8.1440    25.1920 ca         1 QIQ      -0.085000
      8 C13        -19.1210     7.8900    26.0470 ca         1 QIQ      -0.085000
      9 C15        -22.0420     3.3610    29.7570 ca         1 QIQ      -0.059000
     10 O          -19.9380     6.0890    28.5440 o          1 QIQ      -0.563100
     11 C3         -22.3070     4.6730    29.3780 ca         1 QIQ      -0.118300
     12 C2         -22.7680     5.5500    30.3560 ca         1 QIQ       0.359900
     13 N          -22.9650     5.2020    31.6300 nb         1 QIQ      -0.653000
     14 C1         -22.7070     3.9470    31.9910 ca         1 QIQ       0.354900
     15 C          -22.2470     3.0050    31.0790 ca         1 QIQ       0.065000
     16 CL         -21.9340     1.3730    31.6110 cl         1 QIQ      -0.191000
     17 C14        -18.3490     6.7230    25.8470 ca         1 QIQ      -0.001000
     18 C12        -18.5660     9.1260    25.8310 ca         1 QIQ      -0.092000
     19 C11        -17.2240     9.2590    25.4080 ca         1 QIQ      -0.105000
     20 C9         -17.0040     6.8550    25.4000 ca         1 QIQ      -0.090000
     21 N2         -16.7330     4.4630    25.3160 nb         1 QIQ      -0.652000
     22 H1         -20.7260     4.5460    25.9200 hn         1 QIQ       0.155000
     23 H2         -22.6580     6.0340    27.7670 hc         1 QIQ       0.068200
     24 H3         -22.4020     4.3690    27.2580 hc         1 QIQ       0.068200
     25 H4         -18.3730     3.3260    25.9050 h4         1 QIQ       0.019100
     26 H5         -15.2330     5.7710    24.8090 h4         1 QIQ       0.022100
     27 H6         -15.4320     8.2290    24.8580 ha         1 QIQ       0.118000
     28 H7         -20.1490     7.8030    26.3670 ha         1 QIQ       0.121000
     29 H9         -22.9920     6.5790    30.0950 h4         1 QIQ       0.027100
     30 H10        -22.8700     3.6760    33.0280 h4         1 QIQ       0.037100
     31 H11        -19.1640    10.0160    25.9850 ha         1 QIQ       0.117000
     32 H12        -16.8090    10.2460    25.2490 ha         1 QIQ       0.118000
     33 H8         -21.6840     2.6350    29.0380 ha         1 QIQ       0.131000
@<TRIPOS>BOND
     1     1     3 1   
     2     1     4 1   
     3     1    22 1   
     4     2     3 1   
     5     2    11 1   
     6     2    23 1   
     7     2    24 1   
     8     3    10 2   
     9     4     5 ar  
    10     4    17 ar  
    11     5    21 ar  
    12     5    25 1   
    13     6    20 ar  
    14     6    21 ar  
    15     6    26 1   
    16     7    19 ar  
    17     7    20 ar  
    18     7    27 1   
    19     8    17 ar  
    20     8    18 ar  
    21     8    28 1   
    22     9    11 ar  
    23     9    15 ar  
    24     9    33 1   
    25    11    12 ar  
    26    12    13 ar  
    27    12    29 1   
    28    13    14 ar  
    29    14    15 ar  
    30    14    30 1   
    31    15    16 1   
    32    17    20 ar  
    33    18    19 ar  
    34    18    31 1   
    35    19    32 1   
@<TRIPOS>SUBSTRUCTURE
     1 QIQ         1 TEMP              0 ****  ****    0 ROOT
