@<TRIPOS>MOLECULE
QIR
   41    44     1     0     0
SMALL
No Charge or Current Charge


@<TRIPOS>ATOM
      1 C02        -45.4190   -27.5090    -0.3590 c3         1 QIR       0.029300
      2 C03        -46.7240   -27.1420     0.4460 c          1 QIR       0.695000
      3 C06        -44.6380   -28.7380     0.2150 c6         1 QIR      -0.065700
      4 C07        -45.3620   -30.0880    -0.0730 c6         1 QIR      -0.069400
      5 C08        -44.8760   -31.1770     0.9070 c6         1 QIR      -0.084400
      6 C09        -45.2370   -30.7970     2.3700 c6         1 QIR       0.220800
      7 C11        -45.3370   -28.8870     3.9590 ca         1 QIR       0.453900
      8 C12        -46.5660   -28.9170     4.6510 cp         1 QIR      -0.224000
      9 C13        -47.9300   -29.2510     4.2450 cp         1 QIR      -0.042000
     10 C14        -48.7420   -29.1280     5.3650 ca         1 QIR      -0.008200
     11 C15        -50.1200   -29.3560     5.3430 ca         1 QIR      -0.195000
     12 C16        -50.6890   -29.7210     4.1070 ca         1 QIR       0.167000
     13 C17        -49.8910   -29.8310     2.9430 ca         1 QIR      -0.178000
     14 C18        -48.5000   -29.5860     2.9990 ca         1 QIR      -0.022000
     15 C21        -46.5720   -28.5550     6.0010 ca         1 QIR       0.186500
     16 C23        -44.3400   -28.1400     5.9070 ca         1 QIR       0.177900
     17 C25        -44.2530   -28.5780     1.7230 c6         1 QIR       0.237800
     18 F19        -52.0170   -29.9520     4.0280 f          1 QIR      -0.203000
     19 N10        -45.1680   -29.3260     2.6320 nh         1 QIR      -0.735300
     20 N20        -47.9030   -28.7140     6.4060 na         1 QIR      -0.343300
     21 N22        -45.4690   -28.1600     6.6530 nb         1 QIR      -0.276000
     22 N24        -44.2170   -28.4880     4.6040 nb         1 QIR      -0.293000
     23 O01        -44.5390   -26.3580    -0.4740 oh         1 QIR      -0.717000
     24 O04        -46.6540   -26.1840     1.2070 o          1 QIR      -0.726000
     25 O05        -47.7870   -27.6370     0.0960 o          1 QIR      -0.726000
     26 H021       -45.7480   -27.7910    -1.3690 h1         1 QIR       0.034700
     27 H061       -43.6920   -28.7640    -0.3440 hc         1 QIR       0.036700
     28 H071       -46.4490   -29.9790     0.0280 hc         1 QIR       0.047700
     29 H072       -45.1770   -30.4000    -1.1110 hc         1 QIR       0.047700
     30 H081       -45.3210   -32.1490     0.6550 hc         1 QIR       0.030700
     31 H082       -43.7880   -31.2990     0.8120 hc         1 QIR       0.030700
     32 H092       -46.2540   -31.1590     2.5790 h1         1 QIR       0.061700
     33 H091       -44.5660   -31.3390     3.0530 h1         1 QIR       0.061700
     34 H151       -50.7300   -29.2490     6.2350 ha         1 QIR       0.120000
     35 H171       -50.3560   -30.0950     1.9960 ha         1 QIR       0.130000
     36 H181       -47.8910   -29.6390     2.1010 ha         1 QIR       0.177000
     37 H231       -43.4300   -27.8200     6.4120 h5         1 QIR       0.031100
     38 H251       -44.2290   -27.5110     1.9880 h1         1 QIR       0.050200
     39 H252       -43.2290   -28.9560     1.8620 h1         1 QIR       0.050200
     40 H201       -48.2190   -28.5380     7.3520 hn         1 QIR       0.352000
     41 H011       -44.9160   -25.6980     0.1600 ho         1 QIR       0.478000
@<TRIPOS>BOND
     1     1     2 1   
     2     1     3 1   
     3     1    23 1   
     4     1    26 1   
     5     2    24 1   
     6     2    25 1   
     7     3     4 1   
     8     3    17 1   
     9     3    27 1   
    10     4     5 1   
    11     4    28 1   
    12     4    29 1   
    13     5     6 1   
    14     5    30 1   
    15     5    31 1   
    16     6    19 1   
    17     6    32 1   
    18     6    33 1   
    19     7     8 ar  
    20     7    19 1   
    21     7    22 ar  
    22     8     9 1   
    23     8    15 ar  
    24     9    10 ar  
    25     9    14 ar  
    26    10    11 ar  
    27    10    20 1   
    28    11    12 ar  
    29    11    34 1   
    30    12    13 ar  
    31    12    18 1   
    32    13    14 ar  
    33    13    35 1   
    34    14    36 1   
    35    15    20 1   
    36    15    21 ar  
    37    16    21 ar  
    38    16    22 ar  
    39    16    37 1   
    40    17    19 1   
    41    17    38 1   
    42    17    39 1   
    43    20    40 1   
    44    23    41 1   
@<TRIPOS>SUBSTRUCTURE
     1 QIR         1 TEMP              0 ****  ****    0 ROOT
