@<TRIPOS>MOLECULE
QIR
   41    44     1     0     0
SMALL
abcg2


@<TRIPOS>ATOM
      1 C02        -45.1550   -27.6070    -0.3630 c3         1 QIR       0.029300
      2 C03        -46.5550   -27.4440     0.2850 c          1 QIR       0.695000
      3 C06        -44.2980   -28.7630     0.1960 c6         1 QIR      -0.065700
      4 C07        -44.7910   -30.1660    -0.2360 c6         1 QIR      -0.069400
      5 C08        -45.0310   -31.0740     0.9690 c6         1 QIR      -0.084400
      6 C09        -45.9130   -30.3680     1.9890 c6         1 QIR       0.220800
      7 C11        -45.4470   -28.7080     3.7310 ca         1 QIR       0.453900
      8 C12        -46.6330   -28.9130     4.4790 cp         1 QIR      -0.224000
      9 C13        -48.0170   -29.2920     4.2530 cp         1 QIR      -0.042000
     10 C14        -48.6290   -29.3280     5.5380 ca         1 QIR      -0.008200
     11 C15        -49.9710   -29.6360     5.7250 ca         1 QIR      -0.195000
     12 C16        -50.7030   -29.8730     4.5790 ca         1 QIR       0.167000
     13 C17        -50.1730   -29.7920     3.2960 ca         1 QIR      -0.178000
     14 C18        -48.8260   -29.4910     3.1310 ca         1 QIR      -0.022000
     15 C21        -46.5150   -28.6550     5.8640 ca         1 QIR       0.186500
     16 C23        -44.4710   -27.8210     5.6340 ca         1 QIR       0.177900
     17 C25        -44.0950   -28.6640     1.7080 c6         1 QIR       0.237800
     18 F19        -52.0250   -30.1710     4.7120 f          1 QIR      -0.203000
     19 N10        -45.2670   -29.1280     2.4550 nh         1 QIR      -0.735300
     20 N20        -47.6940   -28.9660     6.4860 na         1 QIR      -0.343300
     21 N22        -45.4530   -28.1310     6.4810 nb         1 QIR      -0.276000
     22 N24        -44.4090   -28.0750     4.3330 nb         1 QIR      -0.293000
     23 O01        -44.4410   -26.3790    -0.2190 oh         1 QIR      -0.717000
     24 O04        -46.7020   -26.4070     0.9890 o          1 QIR      -0.726000
     25 O05        -47.4220   -28.3120     0.0420 o          1 QIR      -0.726000
     26 H021       -45.3100   -27.7990    -1.4310 h1         1 QIR       0.034700
     27 H061       -43.3080   -28.5940    -0.2350 hc         1 QIR       0.036700
     28 H071       -45.7270   -30.0640    -0.7850 hc         1 QIR       0.047700
     29 H072       -44.0670   -30.6250    -0.9120 hc         1 QIR       0.047700
     30 H081       -45.5360   -31.9910     0.6600 hc         1 QIR       0.030700
     31 H082       -44.0850   -31.3700     1.4290 hc         1 QIR       0.030700
     32 H092       -46.8620   -30.1410     1.5100 h1         1 QIR       0.061700
     33 H091       -46.1010   -31.0060     2.8530 h1         1 QIR       0.061700
     34 H151       -50.4310   -29.6670     6.7040 ha         1 QIR       0.120000
     35 H171       -50.8190   -29.9460     2.4430 ha         1 QIR       0.130000
     36 H181       -48.4360   -29.3680     2.1330 ha         1 QIR       0.177000
     37 H231       -43.6090   -27.3190     6.0620 h5         1 QIR       0.031100
     38 H251       -43.9050   -27.6310     1.9840 h1         1 QIR       0.050200
     39 H252       -43.2080   -29.2360     1.9980 h1         1 QIR       0.050200
     40 H201       -47.8790   -28.8180     7.4660 hn         1 QIR       0.352000
     41 H011       -45.0290   -25.8670     0.3740 ho         1 QIR       0.478000
@<TRIPOS>BOND
     1     1     2 1   
     2     1     3 1   
     3     1    23 1   
     4     1    26 1   
     5     2    24 1   
     6     2    25 1   
     7     3     4 1   
     8     3    17 1   
     9     3    27 1   
    10     4     5 1   
    11     4    28 1   
    12     4    29 1   
    13     5     6 1   
    14     5    30 1   
    15     5    31 1   
    16     6    19 1   
    17     6    32 1   
    18     6    33 1   
    19     7     8 ar  
    20     7    19 1   
    21     7    22 ar  
    22     8     9 1   
    23     8    15 ar  
    24     9    10 ar  
    25     9    14 ar  
    26    10    11 ar  
    27    10    20 1   
    28    11    12 ar  
    29    11    34 1   
    30    12    13 ar  
    31    12    18 1   
    32    13    14 ar  
    33    13    35 1   
    34    14    36 1   
    35    15    20 1   
    36    15    21 ar  
    37    16    21 ar  
    38    16    22 ar  
    39    16    37 1   
    40    17    19 1   
    41    17    38 1   
    42    17    39 1   
    43    20    40 1   
    44    23    41 1   
@<TRIPOS>SUBSTRUCTURE
     1 QIR         1 TEMP              0 ****  ****    0 ROOT
