@<TRIPOS>MOLECULE
QIT
   39    41     1     0     0
SMALL
abcg2


@<TRIPOS>ATOM
      1 N1         -20.1900     6.0730    26.3080 ns         1 QIT      -0.165000
      2 C4         -18.3240     4.9300    25.3010 ca         1 QIT       0.312900
      3 C5         -16.3850     5.9620    24.6630 ca         1 QIT       0.358900
      4 C6         -16.8460     7.2240    25.1060 ca         1 QIT      -0.091000
      5 C7         -16.0600     8.3950    24.9840 ca         1 QIT      -0.084000
      6 C8         -16.5550     9.6020    25.4030 ca         1 QIT      -0.107000
      7 C10        -18.6370     8.5660    26.0890 ca         1 QIT      -0.087000
      8 C13        -22.8820     6.5530    30.2650 ca         1 QIT      -0.082000
      9 C15        -22.8790     4.7460    31.8510 ca         1 QIT       0.129000
     10 C17        -21.9640     4.4270    29.6450 ca         1 QIT      -0.082000
     11 C16        -22.2650     3.9270    30.9020 ca         1 QIT       0.126000
     12 CL         -23.2760     4.1510    33.4370 cl         1 QIT      -0.175000
     13 C14        -23.1850     6.0600    31.5270 ca         1 QIT      -0.095000
     14 C12        -22.2700     5.7440    29.3130 ca         1 QIT      -0.094300
     15 C1         -21.9890     6.2630    27.9160 c3         1 QIT       0.129800
     16 N          -22.7490     5.6010    26.8580 n7         1 QIT      -0.877400
     17 C          -24.1770     5.9150    26.8740 c3         1 QIT       0.146100
     18 C2         -20.4820     6.2740    27.6100 c          1 QIT       0.598100
     19 O          -19.6480     6.5020    28.4790 o          1 QIT      -0.574100
     20 C3         -18.8810     6.0940    25.7680 ca         1 QIT      -0.071000
     21 C11        -18.1480     7.3060    25.6750 ca         1 QIT      -0.004000
     22 C9         -17.8540     9.6850    25.9540 ca         1 QIT      -0.093000
     23 N2         -17.0890     4.8550    24.7440 nb         1 QIT      -0.654000
     24 H1         -20.9830     5.8340    25.7220 hn         1 QIT       0.185000
     25 H2         -18.8850     4.0050    25.3680 h4         1 QIT       0.021100
     26 H3         -15.3940     5.8900    24.2250 h4         1 QIT       0.021100
     27 H4         -15.0700     8.3180    24.5520 ha         1 QIT       0.118000
     28 H5         -15.9560    10.4990    25.3100 ha         1 QIT       0.117000
     29 H6         -19.6300     8.6420    26.5080 ha         1 QIT       0.121000
     30 H7         -23.1280     7.5790    30.0220 ha         1 QIT       0.122000
     31 H8         -21.4850     3.7750    28.9260 ha         1 QIT       0.131000
     32 H9         -23.6620     6.6900    32.2650 ha         1 QIT       0.135000
     33 H10        -22.2740     7.3200    27.8920 h1         1 QIT       0.083700
     34 H11        -22.6220     4.5960    26.9230 hn         1 QIT       0.419000
     35 H13        -24.6670     5.3790    26.0620 h1         1 QIT       0.040033
     36 H14        -24.6730     5.6490    27.8160 h1         1 QIT       0.040033
     37 H15        -24.3100     6.9860    26.7110 h1         1 QIT       0.040033
     38 H16        -18.2340    10.6480    26.2700 ha         1 QIT       0.116000
     39 CL1        -21.8590     2.2740    31.2680 cl         1 QIT      -0.176000
@<TRIPOS>BOND
     1     1    18 1   
     2     1    20 1   
     3     1    24 1   
     4     2    20 ar  
     5     2    23 ar  
     6     2    25 1   
     7     3     4 ar  
     8     3    23 ar  
     9     3    26 1   
    10     4     5 ar  
    11     4    21 ar  
    12     5     6 ar  
    13     5    27 1   
    14     6    22 ar  
    15     6    28 1   
    16     7    21 ar  
    17     7    22 ar  
    18     7    29 1   
    19     8    13 ar  
    20     8    14 ar  
    21     8    30 1   
    22     9    11 ar  
    23     9    12 1   
    24     9    13 ar  
    25    10    11 ar  
    26    10    14 ar  
    27    10    31 1   
    28    11    39 1   
    29    13    32 1   
    30    14    15 1   
    31    15    16 1   
    32    15    18 1   
    33    15    33 1   
    34    16    17 1   
    35    16    34 1   
    36    17    35 1   
    37    17    36 1   
    38    17    37 1   
    39    18    19 2   
    40    20    21 ar  
    41    22    38 1   
@<TRIPOS>SUBSTRUCTURE
     1 QIT         1 TEMP              0 ****  ****    0 ROOT
