@<TRIPOS>MOLECULE
QIT
   39    41     1     0     0
SMALL
No Charge or Current Charge


@<TRIPOS>ATOM
      1 N1         -20.2590     6.1920    26.0560 ns         1 QIT      -0.165000
      2 C4         -18.6900     5.3850    24.3850 ca         1 QIT       0.312900
      3 C5         -16.6320     6.3600    23.9820 ca         1 QIT       0.358900
      4 C6         -16.8650     7.3630    24.9430 ca         1 QIT      -0.091000
      5 C7         -15.9010     8.3630    25.1760 ca         1 QIT      -0.084000
      6 C8         -16.1510     9.3750    26.1160 ca         1 QIT      -0.107000
      7 C10        -18.3320     8.3980    26.5900 ca         1 QIT      -0.087000
      8 C13        -23.0160     6.7910    29.9660 ca         1 QIT      -0.082000
      9 C15        -22.8780     5.4240    31.9780 ca         1 QIT       0.129000
     10 C17        -21.9470     4.6070    29.8790 ca         1 QIT      -0.082000
     11 C16        -22.2090     4.4210    31.2470 ca         1 QIT       0.126000
     12 Cl         -23.2250     5.2230    33.6970 cl         1 QIT      -0.175000
     13 C14        -23.2800     6.6060    31.3350 ca         1 QIT      -0.095000
     14 C12        -22.3450     5.7950    29.2270 ca         1 QIT      -0.094300
     15 C1         -22.0700     6.0010    27.7330 c3         1 QIT       0.129800
     16 N          -22.7910     4.9600    26.9240 n7         1 QIT      -0.877400
     17 C          -24.2680     4.9950    26.9980 c3         1 QIT       0.146100
     18 C2         -20.5360     6.0950    27.4100 c          1 QIT       0.598100
     19 O          -19.6540     6.0660    28.2660 o          1 QIT      -0.574100
     20 C3         -19.0120     6.3260    25.3860 ca         1 QIT      -0.071000
     21 C11        -18.0830     7.3620    25.6610 ca         1 QIT      -0.004000
     22 C9         -17.3670     9.3960    26.8170 ca         1 QIT      -0.093000
     23 N2         -17.5270     5.3870    23.6960 nb         1 QIT      -0.654000
     24 H1         -21.0700     6.1120    25.4550 hn         1 QIT       0.185000
     25 H2         -19.3870     4.5830    24.1390 h4         1 QIT       0.021100
     26 H3         -15.7040     6.3390    23.4120 h4         1 QIT       0.021100
     27 H4         -14.9610     8.3600    24.6260 ha         1 QIT       0.118000
     28 H5         -15.4070    10.1490    26.2940 ha         1 QIT       0.117000
     29 H6         -19.2700     8.4530    27.1340 ha         1 QIT       0.121000
     30 H7         -23.3360     7.7110    29.4820 ha         1 QIT       0.122000
     31 H8         -21.4270     3.8280    29.3280 ha         1 QIT       0.131000
     32 H9         -23.7970     7.3790    31.8980 ha         1 QIT       0.135000
     33 H10        -22.4590     6.9900    27.4510 h1         1 QIT       0.083700
     34 H11        -22.4760     4.0280    27.2260 hn         1 QIT       0.419000
     35 H13        -24.7060     4.2310    26.3410 h1         1 QIT       0.040033
     36 H14        -24.6200     4.8020    28.0200 h1         1 QIT       0.040033
     37 H15        -24.6540     5.9740    26.6810 h1         1 QIT       0.040033
     38 H16        -17.5660    10.1880    27.5360 ha         1 QIT       0.116000
     39 Cl1        -21.6890     2.9220    32.0210 cl         1 QIT      -0.176000
@<TRIPOS>BOND
     1     1    18 1   
     2     1    20 1   
     3     1    24 1   
     4     2    20 ar  
     5     2    23 ar  
     6     2    25 1   
     7     3     4 ar  
     8     3    23 ar  
     9     3    26 1   
    10     4     5 ar  
    11     4    21 ar  
    12     5     6 ar  
    13     5    27 1   
    14     6    22 ar  
    15     6    28 1   
    16     7    21 ar  
    17     7    22 ar  
    18     7    29 1   
    19     8    13 ar  
    20     8    14 ar  
    21     8    30 1   
    22     9    11 ar  
    23     9    12 1   
    24     9    13 ar  
    25    10    11 ar  
    26    10    14 ar  
    27    10    31 1   
    28    11    39 1   
    29    13    32 1   
    30    14    15 1   
    31    15    16 1   
    32    15    18 1   
    33    15    33 1   
    34    16    17 1   
    35    16    34 1   
    36    17    35 1   
    37    17    36 1   
    38    17    37 1   
    39    18    19 2   
    40    20    21 ar  
    41    22    38 1   
@<TRIPOS>SUBSTRUCTURE
     1 QIT         1 TEMP              0 ****  ****    0 ROOT
