@<TRIPOS>MOLECULE
QIU
   37    38     1     0     0
SMALL
No Charge or Current Charge


@<TRIPOS>ATOM
      1 N            5.1850     0.4050    -0.3890 ns         1 QIU      -0.507900
      2 C            7.3940     1.4500    -0.3870 c3         1 QIU      -0.179100
      3 O           -5.7770    -1.1970    -0.8000 o          1 QIU      -0.719000
      4 C1           6.1020     1.1140     0.3480 c          1 QIU       0.595100
      5 C10         -1.6380     1.5430     0.1350 ca         1 QIU      -0.121000
      6 C11         -2.7300     2.4200     0.0770 ca         1 QIU      -0.151000
      7 C12         -4.0210     1.9280    -0.1740 ca         1 QIU      -0.074000
      8 C13         -4.2360     0.5450    -0.3710 ca         1 QIU      -0.139600
      9 C14         -5.6320     0.0080    -0.6470 c          1 QIU       0.713600
     10 C15         -3.1230    -0.3270    -0.3080 ca         1 QIU      -0.067000
     11 C16          0.6320    -0.4020    -0.4730 ca         1 QIU      -0.107000
     12 C2           3.8780    -0.0270     0.1120 c3         1 QIU       0.101000
     13 C3           3.0930    -0.8320    -0.9400 c3         1 QIU      -0.042100
     14 C4           1.7340    -1.2780    -0.4170 ca         1 QIU      -0.097300
     15 C5           1.5700    -2.5620     0.1300 ca         1 QIU      -0.124000
     16 C6           0.3160    -2.9680     0.6130 ca         1 QIU      -0.115000
     17 C7          -0.7800    -2.0900     0.5520 ca         1 QIU      -0.098000
     18 C8          -0.6450    -0.7880     0.0080 cp         1 QIU       0.011000
     19 C9          -1.8110     0.1500    -0.0550 cp         1 QIU      -0.093000
     20 O1          -6.5630     0.7990    -0.7070 o          1 QIU      -0.719000
     21 O2           5.8960     1.4480     1.5060 o          1 QIU      -0.612100
     22 H3           5.4430     0.1720    -1.3410 hn         1 QIU       0.308500
     23 H1           7.1490     1.9860    -1.3120 hc         1 QIU       0.054700
     24 H            8.0990     2.0150     0.2320 hc         1 QIU       0.054700
     25 H2           7.8400     0.5240    -0.7670 hc         1 QIU       0.054700
     26 H11         -0.6500     1.9460     0.3440 ha         1 QIU       0.086000
     27 H12         -2.5780     3.4860     0.2290 ha         1 QIU       0.087000
     28 H13         -4.8540     2.6270    -0.2150 ha         1 QIU       0.128000
     29 H14         -3.2730    -1.3910    -0.4720 ha         1 QIU       0.130000
     30 H15          0.7640     0.5860    -0.9060 ha         1 QIU       0.111000
     31 H5           4.0270    -0.6450     1.0080 h1         1 QIU       0.058200
     32 H4           3.2980     0.8600     0.4020 h1         1 QIU       0.058200
     33 H7           2.9660    -0.2170    -1.8400 hc         1 QIU       0.042700
     34 H6           3.6880    -1.7020    -1.2420 hc         1 QIU       0.042700
     35 H8           2.4130    -3.2470     0.1830 ha         1 QIU       0.097000
     36 H9           0.1930    -3.9610     1.0390 ha         1 QIU       0.104000
     37 H10         -1.7380    -2.4180     0.9450 ha         1 QIU       0.129000
@<TRIPOS>BOND
     1     1     4 1   
     2     1    12 1   
     3     1    22 1   
     4     2     4 1   
     5     2    23 1   
     6     2    24 1   
     7     2    25 1   
     8     3     9 1   
     9     4    21 2   
    10     5     6 ar  
    11     5    19 ar  
    12     5    26 1   
    13     6     7 ar  
    14     6    27 1   
    15     7     8 ar  
    16     7    28 1   
    17     8     9 1   
    18     8    10 ar  
    19     9    20 1   
    20    10    19 ar  
    21    10    29 1   
    22    11    14 ar  
    23    11    18 ar  
    24    11    30 1   
    25    12    13 1   
    26    12    31 1   
    27    12    32 1   
    28    13    14 1   
    29    13    33 1   
    30    13    34 1   
    31    14    15 ar  
    32    15    16 ar  
    33    15    35 1   
    34    16    17 ar  
    35    16    36 1   
    36    17    18 ar  
    37    17    37 1   
    38    18    19 1   
@<TRIPOS>SUBSTRUCTURE
     1 QIU         1 TEMP              0 ****  ****    0 ROOT
