@<TRIPOS>MOLECULE
QIU
   37    38     1     0     0
SMALL
abcg2


@<TRIPOS>ATOM
      1 N            5.1100     0.3840    -0.4160 ns         1 QIU      -0.507900
      2 C            7.2970     1.4060    -0.3360 c3         1 QIU      -0.179100
      3 O           -5.6570    -1.2260    -0.7460 o          1 QIU      -0.719000
      4 C1           6.0170     1.0030     0.3530 c          1 QIU       0.595100
      5 C10         -1.5800     1.5330     0.1180 ca         1 QIU      -0.121000
      6 C11         -2.6620     2.4000     0.0770 ca         1 QIU      -0.151000
      7 C12         -3.9420     1.9130    -0.1420 ca         1 QIU      -0.074000
      8 C13         -4.1550     0.5490    -0.3260 ca         1 QIU      -0.139600
      9 C14         -5.5590     0.0040    -0.5680 c          1 QIU       0.713600
     10 C15         -3.0610    -0.3090    -0.2860 ca         1 QIU      -0.067000
     11 C16          0.6240    -0.3950    -0.5270 ca         1 QIU      -0.107000
     12 C2           3.8240    -0.0510     0.0840 c3         1 QIU       0.101000
     13 C3           3.0570    -0.7990    -1.0030 c3         1 QIU      -0.042100
     14 C4           1.7180    -1.2540    -0.4920 ca         1 QIU      -0.097300
     15 C5           1.5580    -2.5220     0.0590 ca         1 QIU      -0.124000
     16 C6           0.3260    -2.9150     0.5630 ca         1 QIU      -0.115000
     17 C7          -0.7550    -2.0480     0.5270 ca         1 QIU      -0.098000
     18 C8          -0.6210    -0.7710    -0.0210 cp         1 QIU       0.011000
     19 C9          -1.7670     0.1620    -0.0650 cp         1 QIU      -0.093000
     20 O1          -6.4860     0.8360    -0.5650 o          1 QIU      -0.719000
     21 O2           5.8230     1.2280     1.5420 o          1 QIU      -0.612100
     22 H3           5.3130     0.2450    -1.3930 hn         1 QIU       0.308500
     23 H1           7.3270     1.1460    -1.3920 hc         1 QIU       0.054700
     24 H            7.4330     2.4830    -0.2420 hc         1 QIU       0.054700
     25 H2           8.1420     0.9280     0.1600 hc         1 QIU       0.054700
     26 H11         -0.5890     1.9250     0.3150 ha         1 QIU       0.086000
     27 H12         -2.5030     3.4610     0.2240 ha         1 QIU       0.087000
     28 H13         -4.7820     2.5930    -0.1710 ha         1 QIU       0.128000
     29 H14         -3.2270    -1.3660    -0.4500 ha         1 QIU       0.130000
     30 H15          0.7420     0.5840    -0.9790 ha         1 QIU       0.111000
     31 H5           3.9610    -0.7040     0.9500 h1         1 QIU       0.058200
     32 H4           3.2380     0.8080     0.4230 h1         1 QIU       0.058200
     33 H7           2.9250    -0.1450    -1.8690 hc         1 QIU       0.042700
     34 H6           3.6430    -1.6590    -1.3350 hc         1 QIU       0.042700
     35 H8           2.3980    -3.2050     0.0910 ha         1 QIU       0.097000
     36 H9           0.2080    -3.9010     0.9930 ha         1 QIU       0.104000
     37 H10         -1.7050    -2.3620     0.9430 ha         1 QIU       0.129000
@<TRIPOS>BOND
     1     1     4 1   
     2     1    12 1   
     3     1    22 1   
     4     2     4 1   
     5     2    23 1   
     6     2    24 1   
     7     2    25 1   
     8     3     9 1   
     9     4    21 2   
    10     5     6 ar  
    11     5    19 ar  
    12     5    26 1   
    13     6     7 ar  
    14     6    27 1   
    15     7     8 ar  
    16     7    28 1   
    17     8     9 1   
    18     8    10 ar  
    19     9    20 1   
    20    10    19 ar  
    21    10    29 1   
    22    11    14 ar  
    23    11    18 ar  
    24    11    30 1   
    25    12    13 1   
    26    12    31 1   
    27    12    32 1   
    28    13    14 1   
    29    13    33 1   
    30    13    34 1   
    31    14    15 ar  
    32    15    16 ar  
    33    15    35 1   
    34    16    17 ar  
    35    16    36 1   
    36    17    18 ar  
    37    17    37 1   
    38    18    19 1   
@<TRIPOS>SUBSTRUCTURE
     1 QIU         1 TEMP              0 ****  ****    0 ROOT
