@<TRIPOS>MOLECULE
QIV
   22    23     1     0     0
SMALL
bcc


@<TRIPOS>ATOM
      1 CAA          4.8620    -0.7930    -0.0090 c3         1 QIV      -0.174100
      2 OAB          3.4230     1.1300    -0.0540 o          1 QIV      -0.563100
      3 CAD         -3.3170     0.9160     0.1080 ca         1 QIV      -0.222000
      4 CAE         -2.0800     1.5350     0.0680 ca         1 QIV      -0.038000
      5 CAF         -2.2790    -1.2750     0.1070 ca         1 QIV      -0.131000
      6 NAG          0.1720    -1.3130     0.0440 nc         1 QIV      -0.612100
      7 NAH          2.4480    -0.8960    -0.0150 ns         1 QIV      -0.473400
      8 SAI          0.7320     1.2250     0.0020 ss         1 QIV      -0.004100
      9 CAJ          3.5440    -0.0800    -0.0390 c          1 QIV       0.675100
     10 CAK         -3.4180    -0.4830     0.1290 ca         1 QIV       0.144100
     11 CAL          1.1470    -0.4710     0.0120 cd         1 QIV       0.448800
     12 CAM         -1.0330    -0.6540     0.0660 ca         1 QIV       0.161400
     13 CAN         -0.9410     0.7450     0.0480 ca         1 QIV      -0.134100
     14 HAA          5.1820    -0.9030     1.0280 hc         1 QIV       0.070033
     15 HAAA         4.8090    -1.7870    -0.4500 hc         1 QIV       0.070033
     16 HAAB         5.6140    -0.2080    -0.5320 hc         1 QIV       0.070033
     17 HOAC        -5.3280    -0.4640     0.1960 ho         1 QIV       0.426000
     18 HAD         -4.2140     1.5230     0.1240 ha         1 QIV       0.132000
     19 HAE         -2.0170     2.6150     0.0540 ha         1 QIV       0.140000
     20 HAF         -2.3530    -2.3550     0.1220 ha         1 QIV       0.163000
     21 HNAH         2.5740    -1.8990    -0.0070 hn         1 QIV       0.340500
     22 OAC         -4.6120    -1.1080     0.1710 oh         1 QIV      -0.493100
@<TRIPOS>BOND
     1     1     9 1   
     2     1    14 1   
     3     1    15 1   
     4     1    16 1   
     5     2     9 2   
     6     3     4 ar  
     7     3    10 ar  
     8     3    18 1   
     9     4    13 ar  
    10     4    19 1   
    11     5    10 ar  
    12     5    12 ar  
    13     5    20 1   
    14     6    11 2   
    15     6    12 1   
    16     7     9 1   
    17     7    11 1   
    18     7    21 1   
    19     8    11 1   
    20     8    13 1   
    21    10    22 1   
    22    12    13 ar  
    23    17    22 1   
@<TRIPOS>SUBSTRUCTURE
     1 QIV         1 TEMP              0 ****  ****    0 ROOT
