@<TRIPOS>MOLECULE
QIV
   22    23     1     0     0
SMALL
No Charge or Current Charge


@<TRIPOS>ATOM
      1 CAA          4.9010    -0.8560    -0.0330 c3         1 QIV      -0.174100
      2 OAB          3.6440     1.1870    -0.1420 o          1 QIV      -0.563100
      3 CAD         -3.3930     0.8800     0.0720 ca         1 QIV      -0.204000
      4 CAE         -2.1500     1.5350    -0.0080 ca         1 QIV      -0.020000
      5 CAF         -2.2530    -1.2760     0.1920 ca         1 QIV      -0.113000
      6 NAG          0.2060    -1.2880     0.1260 nc         1 QIV      -0.612100
      7 NAH          2.4680    -0.7730     0.0280 ns         1 QIV      -0.406400
      8 SAI          0.6570     1.3640    -0.0730 ss         1 QIV       0.122800
      9 CAJ          3.6210    -0.0310    -0.0560 c          1 QIV       0.608100
     10 CAK         -3.4420    -0.5240     0.1720 ca         1 QIV       0.144100
     11 CAL          1.1610    -0.3540     0.0340 cd         1 QIV       0.448800
     12 CAM         -1.0150    -0.6220     0.1120 ca         1 QIV       0.161400
     13 CAN         -0.9840     0.7560     0.0150 ca         1 QIV      -0.261000
     14 HAA          4.9090    -1.4810     0.8670 hc         1 QIV       0.070033
     15 HAAA         4.8620    -1.6000    -0.8360 hc         1 QIV       0.070033
     16 HAAB         5.8020    -0.2350    -0.1010 hc         1 QIV       0.070033
     17 HOAC        -5.3540    -0.4810     0.2220 ho         1 QIV       0.465000
     18 HAD         -4.3080     1.4660     0.0560 ha         1 QIV       0.114000
     19 HAE         -2.0970     2.6200    -0.0850 ha         1 QIV       0.122000
     20 HAF         -2.2920    -2.3590     0.2690 ha         1 QIV       0.145000
     21 HNAH         2.6180    -1.7690     0.0930 hn         1 QIV       0.340500
     22 OAC         -4.6450    -1.1590     0.2500 oh         1 QIV      -0.532100
@<TRIPOS>BOND
     1     1     9 1   
     2     1    14 1   
     3     1    15 1   
     4     1    16 1   
     5     2     9 2   
     6     3     4 ar  
     7     3    10 ar  
     8     3    18 1   
     9     4    13 ar  
    10     4    19 1   
    11     5    10 ar  
    12     5    12 ar  
    13     5    20 1   
    14     6    11 2   
    15     6    12 1   
    16     7     9 1   
    17     7    11 1   
    18     7    21 1   
    19     8    11 1   
    20     8    13 1   
    21    10    22 1   
    22    12    13 ar  
    23    17    22 1   
@<TRIPOS>SUBSTRUCTURE
     1 QIV         1 TEMP              0 ****  ****    0 ROOT
