@<TRIPOS>MOLECULE
QIW
   36    38     1     0     0
SMALL
abcg2


@<TRIPOS>ATOM
      1 C18        -41.7500   -31.0130     0.7520 c3         1 QIW      -0.101400
      2 C17        -43.2080   -31.2450     0.9710 cc         1 QIW       0.278300
      3 C14        -43.4350   -30.9620     3.5670 c          1 QIW       0.723600
      4 C13        -43.9530   -31.2160     2.1780 cc         1 QIW      -0.187600
      5 C12        -45.2580   -31.5280     1.7950 cd         1 QIW      -0.102000
      6 C11        -48.4500   -32.7870     3.3230 ca         1 QIW      -0.145800
      7 C10        -47.2940   -32.7670     2.5450 ca         1 QIW      -0.030000
      8 C01        -48.6360   -36.0980     3.5530 c3         1 QIW      -0.087100
      9 C03        -49.5140   -33.7230     3.5630 cc         1 QIW      -0.127400
     10 C04        -50.3610   -33.1110     4.4510 cd         1 QIW      -0.175100
     11 C06        -48.7230   -31.6280     4.1010 ca         1 QIW       0.373500
     12 C08        -46.8830   -30.5440     3.3930 ca         1 QIW       0.421900
     13 C09        -46.4950   -31.6270     2.5800 ca         1 QIW      -0.051000
     14 C21        -46.3350   -32.0170    -0.4440 c3         1 QIW       0.085900
     15 N05        -49.8880   -31.8520     4.7780 na         1 QIW      -0.342400
     16 N07        -47.9780   -30.5250     4.1500 nb         1 QIW      -0.701000
     17 N19        -43.9910   -31.5540    -0.0620 nd         1 QIW      -0.580800
     18 N20        -45.2350   -31.7090     0.4500 na         1 QIW       0.090800
     19 O15        -42.3680   -30.2970     3.6630 o          1 QIW      -0.724500
     20 O16        -44.0900   -31.4390     4.5310 o          1 QIW      -0.724500
     21 H183       -41.4940   -31.2250    -0.2870 hc         1 QIW       0.039700
     22 H182       -41.4760   -29.9820     0.9800 hc         1 QIW       0.039700
     23 H181       -41.1480   -31.6500     1.4010 hc         1 QIW       0.039700
     24 H101       -47.0120   -33.6190     1.9390 ha         1 QIW       0.115000
     25 H011       -48.7580   -37.0790     3.0880 hc         1 QIW       0.033700
     26 H012       -47.6120   -35.7640     3.3740 hc         1 QIW       0.033700
     27 H013       -48.7680   -36.2110     4.6310 hc         1 QIW       0.033700
     28 H022       -49.5300   -35.0480     1.8970 hc         1 QIW       0.031700
     29 H021       -50.6640   -35.4610     3.1690 hc         1 QIW       0.031700
     30 H041       -51.2790   -33.4750     4.8830 h4         1 QIW       0.199000
     31 H081       -46.2630   -29.6570     3.4170 h4         1 QIW       0.042100
     32 H211       -46.1310   -31.5530    -1.4060 h1         1 QIW       0.038367
     33 H213       -46.4430   -33.0950    -0.5790 h1         1 QIW       0.038367
     34 H212       -47.2590   -31.6160    -0.0350 h1         1 QIW       0.038367
     35 H051       -50.3320   -31.2010     5.4050 hn         1 QIW       0.350000
     36 C02        -49.6510   -35.0970     2.9840 c3         1 QIW       0.002800
@<TRIPOS>BOND
     1     1     2 1   
     2     1    21 1   
     3     1    22 1   
     4     1    23 1   
     5     2     4 1   
     6     2    17 2   
     7     3     4 1   
     8     3    19 1   
     9     3    20 1   
    10     4     5 2   
    11     5    13 1   
    12     5    18 1   
    13     6     7 ar  
    14     6     9 1   
    15     6    11 ar  
    16     7    13 ar  
    17     7    24 1   
    18     8    25 1   
    19     8    26 1   
    20     8    27 1   
    21     8    36 1   
    22     9    10 2   
    23     9    36 1   
    24    10    15 1   
    25    10    30 1   
    26    11    15 1   
    27    11    16 ar  
    28    12    13 ar  
    29    12    16 ar  
    30    12    31 1   
    31    14    18 1   
    32    14    32 1   
    33    14    33 1   
    34    14    34 1   
    35    15    35 1   
    36    17    18 1   
    37    28    36 1   
    38    29    36 1   
@<TRIPOS>SUBSTRUCTURE
     1 QIW         1 TEMP              0 ****  ****    0 ROOT
