@<TRIPOS>MOLECULE
QIW
   36    38     1     0     0
SMALL
No Charge or Current Charge


@<TRIPOS>ATOM
      1 C18        -41.8100   -30.7290     0.6810 c3         1 QIW      -0.101400
      2 C17        -43.2280   -31.1920     0.9090 cc         1 QIW       0.278300
      3 C14        -43.3560   -30.7130     3.4510 c          1 QIW       0.723600
      4 C13        -43.9210   -31.1630     2.1420 cc         1 QIW      -0.187600
      5 C12        -45.1660   -31.7130     1.8960 cd         1 QIW      -0.102000
      6 C11        -48.4680   -32.7100     3.4380 ca         1 QIW      -0.145800
      7 C10        -47.3250   -32.7830     2.6310 ca         1 QIW      -0.030000
      8 C01        -48.8080   -36.0350     3.2970 c3         1 QIW      -0.087100
      9 C03        -49.5700   -33.6250     3.5400 cc         1 QIW      -0.127400
     10 C04        -50.4300   -33.0670     4.4740 cd         1 QIW      -0.175100
     11 C06        -48.6800   -31.6560     4.2930 ca         1 QIW       0.373500
     12 C08        -46.6900   -30.6840     3.6530 ca         1 QIW       0.421900
     13 C09        -46.3870   -31.7340     2.7420 ca         1 QIW      -0.051000
     14 C21        -46.2470   -32.5150    -0.3150 c3         1 QIW       0.085900
     15 N05        -49.8810   -31.8470     4.9420 na         1 QIW      -0.342400
     16 N07        -47.8200   -30.6330     4.4150 nb         1 QIW      -0.701000
     17 N19        -43.9330   -31.6960    -0.0800 nd         1 QIW      -0.580800
     18 N20        -45.1370   -32.0150     0.5190 na         1 QIW       0.090800
     19 O15        -42.2720   -30.1530     3.4820 o          1 QIW      -0.724500
     20 O16        -43.9650   -30.9610     4.4790 o          1 QIW      -0.724500
     21 H183       -41.5010   -30.8900    -0.3590 hc         1 QIW       0.039700
     22 H182       -41.7080   -29.6590     0.8910 hc         1 QIW       0.039700
     23 H181       -41.1090   -31.2800     1.3190 hc         1 QIW       0.039700
     24 H101       -47.1640   -33.6300     1.9730 ha         1 QIW       0.115000
     25 H011       -48.9740   -36.9590     2.7310 hc         1 QIW       0.033700
     26 H012       -47.7570   -35.7450     3.1800 hc         1 QIW       0.033700
     27 H013       -48.9930   -36.2420     4.3570 hc         1 QIW       0.033700
     28 H022       -49.5630   -34.7580     1.7240 hc         1 QIW       0.031700
     29 H021       -50.7830   -35.2640     2.8830 hc         1 QIW       0.031700
     30 H041       -51.3810   -33.4480     4.8390 h4         1 QIW       0.199000
     31 H081       -46.0390   -29.8150     3.7310 h4         1 QIW       0.042100
     32 H211       -46.0530   -32.2920    -1.3710 h1         1 QIW       0.038367
     33 H213       -46.3390   -33.6010    -0.1910 h1         1 QIW       0.038367
     34 H212       -47.1840   -32.0280    -0.0190 h1         1 QIW       0.038367
     35 H051       -50.2800   -31.2180     5.6280 hn         1 QIW       0.350000
     36 C02        -49.7450   -34.9210     2.7930 c3         1 QIW       0.002800
@<TRIPOS>BOND
     1     1     2 1   
     2     1    21 1   
     3     1    22 1   
     4     1    23 1   
     5     2     4 1   
     6     2    17 2   
     7     3     4 1   
     8     3    19 1   
     9     3    20 1   
    10     4     5 2   
    11     5    13 1   
    12     5    18 1   
    13     6     7 ar  
    14     6     9 1   
    15     6    11 ar  
    16     7    13 ar  
    17     7    24 1   
    18     8    25 1   
    19     8    26 1   
    20     8    27 1   
    21     8    36 1   
    22     9    10 2   
    23     9    36 1   
    24    10    15 1   
    25    10    30 1   
    26    11    15 1   
    27    11    16 ar  
    28    12    13 ar  
    29    12    16 ar  
    30    12    31 1   
    31    14    18 1   
    32    14    32 1   
    33    14    33 1   
    34    14    34 1   
    35    15    35 1   
    36    17    18 1   
    37    28    36 1   
    38    29    36 1   
@<TRIPOS>SUBSTRUCTURE
     1 QIW         1 TEMP              0 ****  ****    0 ROOT
