@<TRIPOS>MOLECULE
QIY
  132   138     1     0     0
SMALL
abcg2


@<TRIPOS>ATOM
      1 C1          24.9820    -4.7040    20.9020 c3         1 QIY       0.145600
      2 N6          27.3800    -1.2920    22.9510 ns         1 QIY      -0.494900
      3 C7          27.4940    -0.6140    21.7980 c          1 QIY       0.602100
      4 C9          28.8870    -0.1370    21.4410 c3         1 QIY      -0.129400
      5 C10         29.3490    -0.6890    20.0960 c3         1 QIY       0.104200
      6 C12         30.6360    -0.0590    19.6770 cc         1 QIY       0.397800
      7 C15         32.3670     0.3630    18.3980 cc         1 QIY       0.411800
      8 C16         33.3150     0.3660    17.2590 c3         1 QIY      -0.126400
      9 C20         29.5910    -2.1790    15.4580 cc         1 QIY      -0.208300
     10 C21         29.1800    -2.4720    14.0490 c3         1 QIY      -0.015800
     11 C22         29.2990    -2.8940    16.5870 cd         1 QIY      -0.038300
     12 C24         29.8590    -2.3000    17.7740 cd         1 QIY      -0.184900
     13 C27         30.9540    -4.9620    18.6110 ca         1 QIY      -0.065500
     14 C31         29.4050    -6.3750    20.4410 ca         1 QIY      -0.111500
     15 C32         29.1980    -5.0160    20.2520 ca         1 QIY      -0.065500
     16 C33         27.1010    -4.8630    25.2030 c3         1 QIY       0.124600
     17 C34         28.0390    -5.9660    24.7490 c3         1 QIY       0.161600
     18 O2          25.9610    -5.5520    21.4690 os         1 QIY      -0.443000
     19 O3          27.1310    -3.7980    24.2680 os         1 QIY      -0.444000
     20 C4          26.2970    -2.7100    24.6330 c3         1 QIY       0.137600
     21 C5          26.1080    -1.8020    23.4390 c3         1 QIY       0.110000
     22 O8          26.5280    -0.3750    21.0690 o          1 QIY      -0.625100
     23 N11         29.5470    -2.1390    20.2020 n2         1 QIY      -0.577900
     24 N13         31.4400     0.7150    20.3480 nd         1 QIY      -0.351000
     25 N14         32.5320     0.9880    19.5370 nd         1 QIY      -0.357000
     26 N17         31.1690    -0.3210    18.4330 na         1 QIY      -0.262800
     27 C18         30.5580    -1.1470    17.4850 cc         1 QIY      -0.122200
     28 S19         30.5540    -0.7810    15.8030 ss         1 QIY       0.220000
     29 C23         28.4510    -4.1280    16.5480 c3         1 QIY      -0.029800
     30 C25         29.7510    -2.8370    19.1470 cf         1 QIY       0.561500
     31 C26         29.9600    -4.2980    19.3310 ca         1 QIY      -0.135900
     32 C28         31.1950    -6.3140    18.8120 ca         1 QIY      -0.111500
     33 C29         30.4070    -7.0090    19.7190 ca         1 QIY       0.126000
     34 CL30        30.6670    -8.7250    19.9410 cl         1 QIY      -0.221000
     35 O35         27.8410    -6.4280    23.4210 os         1 QIY      -0.439000
     36 C36         26.6260    -7.1170    23.1500 c3         1 QIY       0.156600
     37 C37         25.5130    -6.2260    22.6350 c3         1 QIY       0.136600
     38 C39         19.9820    -0.7860    14.3650 ca         1 QIY       0.126000
     39 C40         21.1620    -1.1780    13.7500 ca         1 QIY      -0.100000
     40 C41         22.1510    -1.7870    14.5140 ca         1 QIY      -0.090000
     41 C42         19.7730    -0.9940    15.7220 ca         1 QIY      -0.100000
     42 C43         20.7730    -1.6060    16.4690 ca         1 QIY      -0.090000
     43 C44         21.9690    -2.0060    15.8770 ca         1 QIY      -0.095300
     44 C45         23.0520    -2.6280    16.7380 c3         1 QIY       0.165000
     45 C46         23.8970    -1.5440    17.4330 c3         1 QIY      -0.176400
     46 N47         23.9280    -3.5240    16.0010 ns         1 QIY      -0.499900
     47 C48         23.7130    -4.8490    15.9270 c          1 QIY       0.602100
     48 O49         22.7560    -5.4120    16.4510 o          1 QIY      -0.600100
     49 C50         24.7420    -5.6130    15.1000 c5         1 QIY       0.036700
     50 C51         24.1930    -5.9660    13.7070 c5         1 QIY      -0.080400
     51 C52         24.8380    -7.3080    13.3890 c5         1 QIY       0.152300
     52 O53         26.1690    -7.0530    12.9360 oh         1 QIY      -0.662000
     53 C54         24.8330    -8.0150    14.7420 c5         1 QIY       0.071000
     54 N55         25.0500    -6.9150    15.6890 n          1 QIY      -0.392800
     55 C56         25.6020    -6.9790    16.9130 c          1 QIY       0.615100
     56 O57         25.8050    -5.9660    17.5810 o          1 QIY      -0.603100
     57 C58         25.9970    -8.3680    17.4350 c3         1 QIY      -0.170000
     58 C59         25.9630    -8.4140    18.9790 c3         1 QIY      -0.047700
     59 C60         26.5670    -9.7120    19.5120 c3         1 QIY      -0.090600
     60 C61         24.5250    -8.2450    19.4680 c3         1 QIY      -0.090600
     61 C62         29.4120    -8.9150    16.1650 cc         1 QIY       0.290300
     62 C63         30.8550    -8.7130    15.8580 c3         1 QIY      -0.136400
     63 C64         28.5230    -8.0320    16.8410 cc         1 QIY      -0.225000
     64 C65         27.3410    -8.6940    16.8740 cd         1 QIY       0.185300
     65 O66         27.4780    -9.8900    16.2620 os         1 QIY      -0.111700
     66 N67         28.8040   -10.0210    15.8110 nd         1 QIY      -0.368300
     67 C68         25.6910    -3.7400    19.9680 c3         1 QIY       0.099000
     68 N69         24.7120    -2.9570    19.2320 ns         1 QIY      -0.491900
     69 C70         25.0520    -2.1470    18.2160 c          1 QIY       0.608100
     70 O71         26.2240    -1.9350    17.9020 o          1 QIY      -0.612100
     71 H1          24.4560    -4.1520    21.6910 h1         1 QIY       0.023200
     72 H2          24.2360    -5.2920    20.3510 h1         1 QIY       0.023200
     73 H3          28.2130    -1.4850    23.4860 hn         1 QIY       0.328500
     74 H4          29.6100    -0.4090    22.2080 hc         1 QIY       0.078700
     75 H5          28.8480     0.9520    21.3870 hc         1 QIY       0.078700
     76 H6          28.5950    -0.4700    19.3290 h1         1 QIY       0.103700
     77 H7          34.2420     0.8350    17.5810 hc         1 QIY       0.063700
     78 H8          33.5250    -0.6510    16.9230 hc         1 QIY       0.063700
     79 H9          32.9190     0.9260    16.4100 hc         1 QIY       0.063700
     80 H10         29.5120    -1.6900    13.3660 hc         1 QIY       0.047367
     81 H11         29.6010    -3.4200    13.7080 hc         1 QIY       0.047367
     82 H12         28.0930    -2.5470    13.9730 hc         1 QIY       0.047367
     83 H14         28.7980    -6.9240    21.1450 ha         1 QIY       0.134500
     84 H15         28.4190    -4.5200    20.8120 ha         1 QIY       0.136000
     85 H16         27.4320    -4.5200    26.1920 h1         1 QIY       0.023700
     86 H17         26.0750    -5.2350    25.3110 h1         1 QIY       0.023700
     87 H18         27.9540    -6.7990    25.4600 h1         1 QIY       0.054700
     88 H19         29.0670    -5.6000    24.7700 h1         1 QIY       0.054700
     89 H20         26.7410    -2.1630    25.4750 h1         1 QIY       0.029700
     90 H21         25.3130    -3.0740    24.9500 h1         1 QIY       0.029700
     91 H22         25.4550    -0.9740    23.7280 h1         1 QIY       0.055200
     92 H23         25.6100    -2.3450    22.6360 h1         1 QIY       0.055200
     93 H24         29.0590    -5.0230    16.3970 hc         1 QIY       0.051700
     94 H25         27.8860    -4.2580    17.4650 hc         1 QIY       0.051700
     95 H26         27.7370    -4.0730    15.7270 hc         1 QIY       0.051700
     96 H27         31.9760    -6.8190    18.2630 ha         1 QIY       0.134500
     97 H28         26.2730    -7.6470    24.0410 h1         1 QIY       0.049200
     98 H29         26.8660    -7.8590    22.3850 h1         1 QIY       0.049200
     99 H30         25.2090    -5.4900    23.3840 h1         1 QIY       0.024700
    100 H31         24.6420    -6.8560    22.4080 h1         1 QIY       0.024700
    101 H32         21.3070    -1.0130    12.6910 ha         1 QIY       0.131000
    102 H33         23.0690    -2.0980    14.0330 ha         1 QIY       0.116500
    103 H34         18.8450    -0.6900    16.1860 ha         1 QIY       0.131000
    104 H35         20.6130    -1.7750    17.5270 ha         1 QIY       0.116500
    105 H36         22.5640    -3.2370    17.4970 h1         1 QIY       0.080700
    106 H37         23.2470    -0.9640    18.0900 hc         1 QIY       0.077700
    107 H38         24.3200    -0.8690    16.6890 hc         1 QIY       0.077700
    108 H39         24.7620    -3.1470    15.5770 hn         1 QIY       0.326500
    109 H40         25.6590    -5.0260    15.0230 h1         1 QIY       0.075700
    110 H41         24.4280    -5.2050    12.9660 hc         1 QIY       0.074200
    111 H42         23.1090    -6.0920    13.7540 hc         1 QIY       0.074200
    112 H43         24.2790    -7.8740    12.6400 h1         1 QIY       0.057700
    113 H44         26.6110    -7.8990    12.7870 ho         1 QIY       0.450000
    114 H45         23.8700    -8.5000    14.9210 h1         1 QIY       0.065200
    115 H46         25.6210    -8.7620    14.8010 h1         1 QIY       0.065200
    116 H47         25.2960    -9.1160    17.0590 hc         1 QIY       0.081700
    117 H48         26.5610    -7.5750    19.3400 hc         1 QIY       0.083700
    118 H49         26.5170    -9.7250    20.6020 hc         1 QIY       0.038533
    119 H50         26.0180   -10.5820    19.1390 hc         1 QIY       0.038533
    120 H51         27.6140    -9.8210    19.2240 hc         1 QIY       0.038533
    121 H52         24.4910    -8.2470    20.5580 hc         1 QIY       0.038533
    122 H53         24.0870    -7.3090    19.1200 hc         1 QIY       0.038533
    123 H54         23.9010    -9.0690    19.1100 hc         1 QIY       0.038533
    124 H55         31.2360    -9.5330    15.2520 hc         1 QIY       0.058367
    125 H56         31.0030    -7.7730    15.3230 hc         1 QIY       0.058367
    126 H57         31.4320    -8.6620    16.7830 hc         1 QIY       0.058367
    127 H58         28.7390    -7.0610    17.2470 ha         1 QIY       0.166000
    128 H59         26.3020    -4.3020    19.2610 h1         1 QIY       0.076700
    129 H60         26.3480    -3.0820    20.5390 h1         1 QIY       0.076700
    130 H61         23.7360    -3.0580    19.4650 hn         1 QIY       0.307500
    131 CL38        18.7280    -0.0190    13.4110 cl         1 QIY      -0.211000
    132 H13         31.5560    -4.4200    17.8930 ha         1 QIY       0.136000
@<TRIPOS>BOND
     1     1    18 1   
     2     1    67 1   
     3     1    71 1   
     4     1    72 1   
     5     2     3 1   
     6     2    21 1   
     7     2    73 1   
     8     3     4 1   
     9     3    22 2   
    10     4     5 1   
    11     4    74 1   
    12     4    75 1   
    13     5     6 1   
    14     5    23 1   
    15     5    76 1   
    16     6    24 2   
    17     6    26 1   
    18     7     8 1   
    19     7    25 2   
    20     7    26 1   
    21     8    77 1   
    22     8    78 1   
    23     8    79 1   
    24     9    10 1   
    25     9    11 2   
    26     9    28 1   
    27    10    80 1   
    28    10    81 1   
    29    10    82 1   
    30    11    12 1   
    31    11    29 1   
    32    12    27 2   
    33    12    30 1   
    34    13    31 ar  
    35    13    32 ar  
    36    13   132 1   
    37    14    15 ar  
    38    14    33 ar  
    39    14    83 1   
    40    15    31 ar  
    41    15    84 1   
    42    16    17 1   
    43    16    19 1   
    44    16    85 1   
    45    16    86 1   
    46    17    35 1   
    47    17    87 1   
    48    17    88 1   
    49    18    37 1   
    50    19    20 1   
    51    20    21 1   
    52    20    89 1   
    53    20    90 1   
    54    21    91 1   
    55    21    92 1   
    56    23    30 2   
    57    24    25 1   
    58    26    27 1   
    59    27    28 1   
    60    29    93 1   
    61    29    94 1   
    62    29    95 1   
    63    30    31 1   
    64    32    33 ar  
    65    32    96 1   
    66    33    34 1   
    67    35    36 1   
    68    36    37 1   
    69    36    97 1   
    70    36    98 1   
    71    37    99 1   
    72    37   100 1   
    73    38    39 ar  
    74    38    41 ar  
    75    38   131 1   
    76    39    40 ar  
    77    39   101 1   
    78    40    43 ar  
    79    40   102 1   
    80    41    42 ar  
    81    41   103 1   
    82    42    43 ar  
    83    42   104 1   
    84    43    44 1   
    85    44    45 1   
    86    44    46 1   
    87    44   105 1   
    88    45    69 1   
    89    45   106 1   
    90    45   107 1   
    91    46    47 1   
    92    46   108 1   
    93    47    48 2   
    94    47    49 1   
    95    49    50 1   
    96    49    54 1   
    97    49   109 1   
    98    50    51 1   
    99    50   110 1   
   100    50   111 1   
   101    51    52 1   
   102    51    53 1   
   103    51   112 1   
   104    52   113 1   
   105    53    54 1   
   106    53   114 1   
   107    53   115 1   
   108    54    55 1   
   109    55    56 2   
   110    55    57 1   
   111    57    58 1   
   112    57    64 1   
   113    57   116 1   
   114    58    59 1   
   115    58    60 1   
   116    58   117 1   
   117    59   118 1   
   118    59   119 1   
   119    59   120 1   
   120    60   121 1   
   121    60   122 1   
   122    60   123 1   
   123    61    62 1   
   124    61    63 1   
   125    61    66 2   
   126    62   124 1   
   127    62   125 1   
   128    62   126 1   
   129    63    64 2   
   130    63   127 1   
   131    64    65 1   
   132    65    66 1   
   133    67    68 1   
   134    67   128 1   
   135    67   129 1   
   136    68    69 1   
   137    68   130 1   
   138    69    70 2   
@<TRIPOS>SUBSTRUCTURE
     1 QIY         1 TEMP              0 ****  ****    0 ROOT
