@<TRIPOS>MOLECULE
QIY
  132   138     1     0     0
SMALL
No Charge or Current Charge


@<TRIPOS>ATOM
      1 C1          24.9370    -4.5660    20.7190 c3         1 QIY       0.145600
      2 N6          27.2800    -1.3030    22.7070 ns         1 QIY      -0.494900
      3 C7          27.6170    -0.4420    21.6920 c          1 QIY       0.602100
      4 C9          29.1160    -0.2270    21.4920 c3         1 QIY      -0.129400
      5 C10         29.6350    -0.8030    20.1510 c3         1 QIY       0.104200
      6 C12         31.0970    -0.4340    19.8780 cc         1 QIY       0.397800
      7 C15         33.0610    -0.2160    18.8500 cc         1 QIY       0.411800
      8 C16         34.2510    -0.4340    17.9570 c3         1 QIY      -0.126400
      9 C20         30.4760    -2.1770    15.5380 cc         1 QIY      -0.208300
     10 C21         30.2230    -2.3630    14.0640 c3         1 QIY      -0.015800
     11 C22         29.8480    -2.8280    16.5860 cd         1 QIY      -0.038300
     12 C24         30.3310    -2.4330    17.8820 cd         1 QIY      -0.184900
     13 C27         31.1910    -5.1080    18.8010 ca         1 QIY      -0.065500
     14 C31         29.5390    -6.5310    20.5680 ca         1 QIY      -0.111500
     15 C32         29.2940    -5.1680    20.3240 ca         1 QIY      -0.065500
     16 C33         26.7110    -4.6500    25.1680 c3         1 QIY       0.124600
     17 C34         27.7830    -5.7240    24.8440 c3         1 QIY       0.161600
     18 O2          25.9170    -5.3920    21.3650 os         1 QIY      -0.443000
     19 O3          26.7890    -3.5980    24.1880 os         1 QIY      -0.444000
     20 C4          25.8560    -2.5190    24.3730 c3         1 QIY       0.137600
     21 C5          25.9080    -1.6130    23.1210 c3         1 QIY       0.110000
     22 O8          26.7730     0.1590    21.0420 o          1 QIY      -0.625100
     23 N11         29.4390    -2.2700    20.1500 n2         1 QIY      -0.577900
     24 N13         31.8060     0.4990    20.5060 nd         1 QIY      -0.351000
     25 N14         33.0330     0.6180    19.8790 nd         1 QIY      -0.357000
     26 N17         31.9050    -0.9600    18.8950 na         1 QIY      -0.262800
     27 C18         31.3140    -1.4830    17.7360 cc         1 QIY      -0.122200
     28 S19         31.6960    -1.0320    16.0890 ss         1 QIY       0.220000
     29 C23         28.7740    -3.8690    16.3830 c3         1 QIY      -0.029800
     30 C25         29.8730    -3.0010    19.1640 cf         1 QIY       0.561500
     31 C26         30.1030    -4.4460    19.4170 ca         1 QIY      -0.135900
     32 C28         31.4440    -6.4650    19.0650 ca         1 QIY      -0.111500
     33 C29         30.6110    -7.1780    19.9380 ca         1 QIY       0.126000
     34 Cl30        30.9180    -8.8800    20.2500 cl         1 QIY      -0.221000
     35 O35         27.6940    -6.2140    23.4790 os         1 QIY      -0.439000
     36 C36         26.5380    -7.0050    23.1020 c3         1 QIY       0.156600
     37 C37         25.4100    -6.1220    22.5000 c3         1 QIY       0.136600
     38 C39         19.3830    -0.6840    14.3040 ca         1 QIY       0.126000
     39 C40         20.7140    -0.6700    13.8580 ca         1 QIY      -0.100000
     40 C41         21.7150    -1.3070    14.6130 ca         1 QIY      -0.090000
     41 C42         19.0500    -1.3350    15.5020 ca         1 QIY      -0.100000
     42 C43         20.0500    -1.9720    16.2580 ca         1 QIY      -0.090000
     43 C44         21.3910    -1.9610    15.8210 ca         1 QIY      -0.095300
     44 C45         22.4670    -2.6620    16.6460 c3         1 QIY       0.165000
     45 C46         23.5200    -1.6690    17.2010 c3         1 QIY      -0.176400
     46 N47         23.0640    -3.7560    15.8790 ns         1 QIY      -0.499900
     47 C48         23.3040    -5.0220    16.3780 c          1 QIY       0.602100
     48 O49         22.9940    -5.3640    17.5130 o          1 QIY      -0.600100
     49 C50         23.9950    -5.8930    15.2810 c5         1 QIY       0.036700
     50 C51         22.8880    -6.5400    14.3970 c5         1 QIY      -0.080400
     51 C52         23.6350    -7.7210    13.7290 c5         1 QIY       0.152300
     52 O53         24.4910    -7.2620    12.6760 oh         1 QIY      -0.662000
     53 C54         24.4340    -8.3030    14.9370 c5         1 QIY       0.071000
     54 N55         24.7040    -7.1080    15.7740 n          1 QIY      -0.392800
     55 C56         25.7460    -7.0320    16.7250 c          1 QIY       0.615100
     56 O57         26.1450    -5.9430    17.1080 o          1 QIY      -0.603100
     57 C58         26.4030    -8.3250    17.2500 c3         1 QIY      -0.170000
     58 C59         26.4290    -8.3800    18.8100 c3         1 QIY      -0.047700
     59 C60         27.1800    -9.6250    19.3430 c3         1 QIY      -0.090600
     60 C61         25.0000    -8.3220    19.4020 c3         1 QIY      -0.090600
     61 C62         29.8340    -8.2390    15.9380 cc         1 QIY       0.290300
     62 C63         31.2200    -7.6880    15.7860 c3         1 QIY      -0.136400
     63 C64         28.8840    -7.6870    16.8090 cc         1 QIY      -0.225000
     64 C65         27.7730    -8.4410    16.6400 cd         1 QIY       0.185300
     65 O66         28.0210    -9.4220    15.7150 os         1 QIY      -0.111700
     66 N67         29.3820    -9.2800    15.2590 nd         1 QIY      -0.368300
     67 C68         25.6560    -3.5920    19.7640 c3         1 QIY       0.099000
     68 N69         24.6950    -2.7140    19.0810 ns         1 QIY      -0.491900
     69 C70         24.7530    -2.3840    17.7470 c          1 QIY       0.608100
     70 O71         25.7230    -2.6330    17.0490 o          1 QIY      -0.612100
     71 H1          24.3730    -3.9840    21.4600 h1         1 QIY       0.023200
     72 H2          24.2260    -5.1820    20.1550 h1         1 QIY       0.023200
     73 H3          28.0350    -1.7950    23.1700 hn         1 QIY       0.328500
     74 H4          29.6770    -0.6860    22.3150 hc         1 QIY       0.078700
     75 H5          29.2890     0.8550    21.4940 hc         1 QIY       0.078700
     76 H6          29.0450    -0.3480    19.3430 h1         1 QIY       0.103700
     77 H7          35.1830    -0.2480    18.5030 hc         1 QIY       0.063700
     78 H8          34.2840    -1.4640    17.5850 hc         1 QIY       0.063700
     79 H9          34.2240     0.2480    17.0990 hc         1 QIY       0.063700
     80 H10         30.9420    -1.7960    13.4610 hc         1 QIY       0.047367
     81 H11         30.3090    -3.4190    13.7830 hc         1 QIY       0.047367
     82 H12         29.2160    -2.0210    13.7950 hc         1 QIY       0.047367
     83 H14         28.9030    -7.0840    21.2510 ha         1 QIY       0.134500
     84 H15         28.4660    -4.6800    20.8340 ha         1 QIY       0.136000
     85 H16         26.9090    -4.2490    26.1700 h1         1 QIY       0.023700
     86 H17         25.7140    -5.1070    25.1910 h1         1 QIY       0.023700
     87 H18         27.6850    -6.5530    25.5570 h1         1 QIY       0.054700
     88 H19         28.7710    -5.2740    25.0070 h1         1 QIY       0.054700
     89 H20         26.1240    -1.9330    25.2610 h1         1 QIY       0.029700
     90 H21         24.8320    -2.8950    24.5010 h1         1 QIY       0.029700
     91 H22         25.3750    -0.6760    23.3320 h1         1 QIY       0.055200
     92 H23         25.3960    -2.1130    22.2920 h1         1 QIY       0.055200
     93 H24         29.2100    -4.8130    16.0360 hc         1 QIY       0.051700
     94 H25         28.2170    -4.0730    17.3030 hc         1 QIY       0.051700
     95 H26         28.0470    -3.5440    15.6300 hc         1 QIY       0.051700
     96 H27         32.2860    -6.9640    18.5930 ha         1 QIY       0.134500
     97 H28         26.1470    -7.5660    23.9600 h1         1 QIY       0.049200
     98 H29         26.8280    -7.7410    22.3410 h1         1 QIY       0.049200
     99 H30         25.0080    -5.4370    23.2520 h1         1 QIY       0.024700
    100 H31         24.5860    -6.7770    22.1890 h1         1 QIY       0.024700
    101 H32         20.9690    -0.1670    12.9290 ha         1 QIY       0.131000
    102 H33         22.7420    -1.2900    14.2550 ha         1 QIY       0.116500
    103 H34         18.0180    -1.3450    15.8440 ha         1 QIY       0.131000
    104 H35         19.7780    -2.4740    17.1840 ha         1 QIY       0.116500
    105 H36         21.9720    -3.1100    17.5190 h1         1 QIY       0.080700
    106 H37         23.0300    -1.1050    18.0020 hc         1 QIY       0.077700
    107 H38         23.8420    -0.9940    16.4010 hc         1 QIY       0.077700
    108 H39         23.3470    -3.5750    14.9240 hn         1 QIY       0.326500
    109 H40         24.6770    -5.2650    14.6920 h1         1 QIY       0.075700
    110 H41         22.4650    -5.8400    13.6680 hc         1 QIY       0.074200
    111 H42         22.0550    -6.9110    15.0070 hc         1 QIY       0.074200
    112 H43         22.9260    -8.4620    13.3340 h1         1 QIY       0.057700
    113 H44         24.8810    -8.0590    12.2520 ho         1 QIY       0.450000
    114 H45         23.8290    -9.0320    15.4930 h1         1 QIY       0.065200
    115 H46         25.3570    -8.8010    14.6100 h1         1 QIY       0.065200
    116 H47         25.8200    -9.1850    16.9080 hc         1 QIY       0.081700
    117 H48         26.9700    -7.4960    19.1760 hc         1 QIY       0.083700
    118 H49         27.1870    -9.6310    20.4400 hc         1 QIY       0.038533
    119 H50         26.6990   -10.5480    18.9980 hc         1 QIY       0.038533
    120 H51         28.2230    -9.6350    19.0070 hc         1 QIY       0.038533
    121 H52         25.0320    -8.3900    20.4960 hc         1 QIY       0.038533
    122 H53         24.5000    -7.3830    19.1410 hc         1 QIY       0.038533
    123 H54         24.3890    -9.1520    19.0290 hc         1 QIY       0.038533
    124 H55         31.5720    -7.7920    14.7530 hc         1 QIY       0.058367
    125 H56         31.2520    -6.6230    16.0440 hc         1 QIY       0.058367
    126 H57         31.9200    -8.2220    16.4380 hc         1 QIY       0.058367
    127 H58         29.0160    -6.8300    17.4560 ha         1 QIY       0.166000
    128 H59         26.2220    -4.1730    19.0250 h1         1 QIY       0.076700
    129 H60         26.3670    -2.9760    20.3290 h1         1 QIY       0.076700
    130 H61         23.8580    -2.4380    19.5800 hn         1 QIY       0.307500
    131 Cl38        18.1310     0.1120    13.3580 cl         1 QIY      -0.211000
    132 H13         31.8530    -4.5720    18.1240 ha         1 QIY       0.136000
@<TRIPOS>BOND
     1     1    18 1   
     2     1    67 1   
     3     1    71 1   
     4     1    72 1   
     5     2     3 1   
     6     2    21 1   
     7     2    73 1   
     8     3     4 1   
     9     3    22 2   
    10     4     5 1   
    11     4    74 1   
    12     4    75 1   
    13     5     6 1   
    14     5    23 1   
    15     5    76 1   
    16     6    24 2   
    17     6    26 1   
    18     7     8 1   
    19     7    25 2   
    20     7    26 1   
    21     8    77 1   
    22     8    78 1   
    23     8    79 1   
    24     9    10 1   
    25     9    11 2   
    26     9    28 1   
    27    10    80 1   
    28    10    81 1   
    29    10    82 1   
    30    11    12 1   
    31    11    29 1   
    32    12    27 2   
    33    12    30 1   
    34    13    31 ar  
    35    13    32 ar  
    36    13   132 1   
    37    14    15 ar  
    38    14    33 ar  
    39    14    83 1   
    40    15    31 ar  
    41    15    84 1   
    42    16    17 1   
    43    16    19 1   
    44    16    85 1   
    45    16    86 1   
    46    17    35 1   
    47    17    87 1   
    48    17    88 1   
    49    18    37 1   
    50    19    20 1   
    51    20    21 1   
    52    20    89 1   
    53    20    90 1   
    54    21    91 1   
    55    21    92 1   
    56    23    30 2   
    57    24    25 1   
    58    26    27 1   
    59    27    28 1   
    60    29    93 1   
    61    29    94 1   
    62    29    95 1   
    63    30    31 1   
    64    32    33 ar  
    65    32    96 1   
    66    33    34 1   
    67    35    36 1   
    68    36    37 1   
    69    36    97 1   
    70    36    98 1   
    71    37    99 1   
    72    37   100 1   
    73    38    39 ar  
    74    38    41 ar  
    75    38   131 1   
    76    39    40 ar  
    77    39   101 1   
    78    40    43 ar  
    79    40   102 1   
    80    41    42 ar  
    81    41   103 1   
    82    42    43 ar  
    83    42   104 1   
    84    43    44 1   
    85    44    45 1   
    86    44    46 1   
    87    44   105 1   
    88    45    69 1   
    89    45   106 1   
    90    45   107 1   
    91    46    47 1   
    92    46   108 1   
    93    47    48 2   
    94    47    49 1   
    95    49    50 1   
    96    49    54 1   
    97    49   109 1   
    98    50    51 1   
    99    50   110 1   
   100    50   111 1   
   101    51    52 1   
   102    51    53 1   
   103    51   112 1   
   104    52   113 1   
   105    53    54 1   
   106    53   114 1   
   107    53   115 1   
   108    54    55 1   
   109    55    56 2   
   110    55    57 1   
   111    57    58 1   
   112    57    64 1   
   113    57   116 1   
   114    58    59 1   
   115    58    60 1   
   116    58   117 1   
   117    59   118 1   
   118    59   119 1   
   119    59   120 1   
   120    60   121 1   
   121    60   122 1   
   122    60   123 1   
   123    61    62 1   
   124    61    63 1   
   125    61    66 2   
   126    62   124 1   
   127    62   125 1   
   128    62   126 1   
   129    63    64 2   
   130    63   127 1   
   131    64    65 1   
   132    65    66 1   
   133    67    68 1   
   134    67   128 1   
   135    67   129 1   
   136    68    69 1   
   137    68   130 1   
   138    69    70 2   
@<TRIPOS>SUBSTRUCTURE
     1 QIY         1 TEMP              0 ****  ****    0 ROOT
