@<TRIPOS>MOLECULE
QIZ
   39    42     1     0     0
SMALL
abcg2


@<TRIPOS>ATOM
      1 N1         -16.8970     4.8540    24.9760 nb         1 QIZ      -0.651000
      2 C4         -22.7870     7.0260    27.7370 c6         1 QIZ      -0.106400
      3 C5         -22.0210     5.7170    28.0050 c6         1 QIZ      -0.081400
      4 C6         -20.5310     5.9250    27.7270 c          1 QIZ       0.593100
      5 C7         -18.8520     5.8730    25.9440 ca         1 QIZ      -0.077000
      6 C8         -18.1530     4.7850    25.4820 ca         1 QIZ       0.308900
      7 C10        -16.9280     7.2280    25.3810 ca         1 QIZ      -0.090000
      8 C13        -18.2340     9.5550    26.1940 ca         1 QIZ      -0.091000
      9 C15        -18.2550     7.1600    25.8890 ca         1 QIZ      -0.001000
     10 C17        -22.0260     3.9500    29.7990 ca         1 QIZ      -0.032000
     11 C18        -22.2410     3.5180    31.0970 ca         1 QIZ       0.041000
     12 C          -22.7050     4.4330    32.0360 ca         1 QIZ       0.218000
     13 F          -22.9210     4.0320    33.3060 f          1 QIZ      -0.161000
     14 C16        -22.2560     5.2700    29.4250 ca         1 QIZ      -0.161300
     15 C2         -22.7190     6.1710    30.3920 ca         1 QIZ       0.190100
     16 C1         -22.9480     5.7460    31.7030 ca         1 QIZ      -0.180000
     17 C3         -22.5540     8.0060    28.8670 c6         1 QIZ       0.157600
     18 O          -22.9960     7.4730    30.1320 os         1 QIZ      -0.340100
     19 O1         -19.7450     6.3200    28.5780 o          1 QIZ      -0.559100
     20 N          -20.1690     5.6950    26.4370 ns         1 QIZ      -0.170000
     21 C14        -18.8970     8.3570    26.2840 ca         1 QIZ      -0.088000
     22 C12        -16.9080     9.6190    25.7090 ca         1 QIZ      -0.105000
     23 C11        -16.2680     8.4770    25.3060 ca         1 QIZ      -0.083000
     24 C9         -16.3140     6.0300    24.9430 ca         1 QIZ       0.359900
     25 H1         -22.4700     7.4750    26.7950 hc         1 QIZ       0.065200
     26 H2         -23.8530     6.8020    27.6590 hc         1 QIZ       0.065200
     27 H3         -22.3920     4.9480    27.3250 hc         1 QIZ       0.067700
     28 H4         -18.6110     3.8030    25.5150 h4         1 QIZ       0.021100
     29 H5         -18.7320    10.4670    26.4980 ha         1 QIZ       0.116000
     30 H6         -21.6730     3.2430    29.0580 ha         1 QIZ       0.127000
     31 H7         -23.3080     6.4400    32.4500 ha         1 QIZ       0.151000
     32 H8         -21.4950     8.2610    28.9540 h1         1 QIZ       0.069700
     33 H9         -23.1280     8.9200    28.7280 h1         1 QIZ       0.069700
     34 H10        -20.8380     5.2440    25.8300 hn         1 QIZ       0.156000
     35 H11        -19.9110     8.3250    26.6520 ha         1 QIZ       0.116000
     36 H12        -16.4050    10.5760    25.6530 ha         1 QIZ       0.119000
     37 H13        -15.2560     8.5110    24.9210 ha         1 QIZ       0.119000
     38 H14        -15.3020     6.0740    24.5510 h4         1 QIZ       0.023100
     39 CL         -21.9480     1.8630    31.5550 cl         1 QIZ      -0.176000
@<TRIPOS>BOND
     1     1     6 ar  
     2     1    24 ar  
     3     2     3 1   
     4     2    17 1   
     5     2    25 1   
     6     2    26 1   
     7     3     4 1   
     8     3    14 1   
     9     3    27 1   
    10     4    19 2   
    11     4    20 1   
    12     5     6 ar  
    13     5     9 ar  
    14     5    20 1   
    15     6    28 1   
    16     7     9 ar  
    17     7    23 ar  
    18     7    24 ar  
    19     8    21 ar  
    20     8    22 ar  
    21     8    29 1   
    22     9    21 ar  
    23    10    11 ar  
    24    10    14 ar  
    25    10    30 1   
    26    11    12 ar  
    27    11    39 1   
    28    12    13 1   
    29    12    16 ar  
    30    14    15 ar  
    31    15    16 ar  
    32    15    18 1   
    33    16    31 1   
    34    17    18 1   
    35    17    32 1   
    36    17    33 1   
    37    20    34 1   
    38    21    35 1   
    39    22    23 ar  
    40    22    36 1   
    41    23    37 1   
    42    24    38 1   
@<TRIPOS>SUBSTRUCTURE
     1 QIZ         1 TEMP              0 ****  ****    0 ROOT
