@<TRIPOS>MOLECULE
QIZ
   39    42     1     0     0
SMALL
No Charge or Current Charge


@<TRIPOS>ATOM
      1 N1         -17.0050     4.8440    24.7100 nb         1 QIZ      -0.651000
      2 C4         -22.9320     6.9530    27.6950 c6         1 QIZ      -0.106400
      3 C5         -22.0360     5.7410    28.0580 c6         1 QIZ      -0.081400
      4 C6         -20.5400     6.0350    27.7760 c          1 QIZ       0.593100
      5 C7         -18.8390     5.9290    25.8910 ca         1 QIZ      -0.077000
      6 C8         -18.2290     4.8120    25.2820 ca         1 QIZ       0.308900
      7 C10        -16.8690     7.2010    25.2760 ca         1 QIZ      -0.090000
      8 C13        -17.9620     9.5620    26.3380 ca         1 QIZ      -0.091000
      9 C15        -18.1510     7.1690    25.8710 ca         1 QIZ      -0.001000
     10 C17        -21.8630     3.9960    29.9100 ca         1 QIZ      -0.032000
     11 C18        -22.0870     3.5670    31.2300 ca         1 QIZ       0.041000
     12 C          -22.7290     4.4230    32.1440 ca         1 QIZ       0.218000
     13 F          -22.9560     4.0200    33.4150 f          1 QIZ      -0.161000
     14 C16        -22.2750     5.2820    29.5040 ca         1 QIZ      -0.161300
     15 C2         -22.9100     6.1390    30.4350 ca         1 QIZ       0.190100
     16 C1         -23.1430     5.7030    31.7460 ca         1 QIZ      -0.180000
     17 C3         -22.8900     7.9870    28.8390 c6         1 QIZ       0.157600
     18 O          -23.3470     7.3980    30.0750 os         1 QIZ      -0.340100
     19 O1         -19.7740     6.4230    28.6510 o          1 QIZ      -0.559100
     20 N          -20.1190     5.7560    26.4840 ns         1 QIZ      -0.170000
     21 C14        -18.6980     8.3650    26.3880 ca         1 QIZ      -0.088000
     22 C12        -16.6800     9.5800    25.7660 ca         1 QIZ      -0.105000
     23 C11        -16.1340     8.4020    25.2310 ca         1 QIZ      -0.083000
     24 C9         -16.3400     6.0210    24.7180 ca         1 QIZ       0.359900
     25 H1         -22.6130     7.4120    26.7490 hc         1 QIZ       0.065200
     26 H2         -23.9700     6.6220    27.5500 hc         1 QIZ       0.065200
     27 H3         -22.3370     4.9580    27.3470 hc         1 QIZ       0.067700
     28 H4         -18.7360     3.8480    25.2690 h4         1 QIZ       0.021100
     29 H5         -18.3890    10.4780    26.7400 ha         1 QIZ       0.116000
     30 H6         -21.3720     3.3290    29.2060 ha         1 QIZ       0.127000
     31 H7         -23.6410     6.3570    32.4550 ha         1 QIZ       0.151000
     32 H8         -21.8610     8.3510    28.9790 h1         1 QIZ       0.069700
     33 H9         -23.5240     8.8520    28.5990 h1         1 QIZ       0.069700
     34 H10        -20.8250     5.3620    25.8740 hn         1 QIZ       0.156000
     35 H11        -19.6940     8.3890    26.8190 ha         1 QIZ       0.116000
     36 H12        -16.1140    10.5080    25.7280 ha         1 QIZ       0.119000
     37 H13        -15.1450     8.4250    24.7770 ha         1 QIZ       0.119000
     38 H14        -15.3550     6.0190    24.2510 h4         1 QIZ       0.023100
     39 Cl         -21.5630     1.9550    31.7170 cl         1 QIZ      -0.176000
@<TRIPOS>BOND
     1     1     6 ar  
     2     1    24 ar  
     3     2     3 1   
     4     2    17 1   
     5     2    25 1   
     6     2    26 1   
     7     3     4 1   
     8     3    14 1   
     9     3    27 1   
    10     4    19 2   
    11     4    20 1   
    12     5     6 ar  
    13     5     9 ar  
    14     5    20 1   
    15     6    28 1   
    16     7     9 ar  
    17     7    23 ar  
    18     7    24 ar  
    19     8    21 ar  
    20     8    22 ar  
    21     8    29 1   
    22     9    21 ar  
    23    10    11 ar  
    24    10    14 ar  
    25    10    30 1   
    26    11    12 ar  
    27    11    39 1   
    28    12    13 1   
    29    12    16 ar  
    30    14    15 ar  
    31    15    16 ar  
    32    15    18 1   
    33    16    31 1   
    34    17    18 1   
    35    17    32 1   
    36    17    33 1   
    37    20    34 1   
    38    21    35 1   
    39    22    23 ar  
    40    22    36 1   
    41    23    37 1   
    42    24    38 1   
@<TRIPOS>SUBSTRUCTURE
     1 QIZ         1 TEMP              0 ****  ****    0 ROOT
