@<TRIPOS>MOLECULE
QJ0
   26    28     1     0     0
SMALL
No Charge or Current Charge


@<TRIPOS>ATOM
      1 C18        -47.2610   -29.0520     4.7100 ca         1 QJ0      -0.090800
      2 C13        -43.3280   -31.3590     1.3540 cc         1 QJ0       0.442800
      3 C11        -44.2350   -28.7920     2.1340 c3         1 QJ0      -0.071400
      4 C19        -48.3160   -29.9230     4.3970 ca         1 QJ0       0.016000
      5 C02        -49.3620   -29.9900     5.3350 ca         1 QJ0      -0.102900
      6 C03        -49.2930   -29.1990     6.5060 ca         1 QJ0       0.387900
      7 C05        -47.2630   -28.3120     5.8730 ca         1 QJ0       0.366500
      8 C07        -45.3100   -27.7930     4.7440 cc         1 QJ0      -0.099100
      9 C08        -46.0340   -28.7220     4.0070 cd         1 QJ0      -0.233400
     10 C09        -45.5900   -29.2750     2.6910 c          1 QJ0       0.617300
     11 N04        -48.2550   -28.3640     6.7810 nb         1 QJ0      -0.672000
     12 N06        -46.1020   -27.5650     5.8900 na         1 QJ0      -0.300400
     13 N14        -43.3570   -31.6870     2.6220 nd         1 QJ0      -0.317000
     14 N15        -43.0080   -33.0230     2.6430 nd         1 QJ0      -0.045000
     15 N16        -42.7540   -33.4880     1.4400 nc         1 QJ0      -0.199800
     16 N17        -42.9500   -32.4260     0.6130 na         1 QJ0      -0.198700
     17 O10        -46.2770   -30.0770     2.0710 o          1 QJ0      -0.502100
     18 S12        -43.6180   -29.7630     0.6660 ss         1 QJ0      -0.271300
     19 Br1        -50.8610   -31.1410     5.0260 br         1 QJ0      -0.077100
     20 H112       -44.3510   -27.7390     1.8530 h1         1 QJ0       0.090200
     21 H111       -43.4930   -28.8530     2.9390 h1         1 QJ0       0.090200
     22 H191       -48.3340   -30.5170     3.4870 ha         1 QJ0       0.159000
     23 H031       -50.0930   -29.2360     7.2450 h4         1 QJ0       0.038100
     24 H071       -44.3580   -27.2960     4.5680 h4         1 QJ0       0.211000
     25 H061       -45.8690   -26.9340     6.6460 hn         1 QJ0       0.371000
     26 H171       -42.8230   -32.4700    -0.3910 hn         1 QJ0       0.390000
@<TRIPOS>BOND
     1     1     4 ar  
     2     1     7 ar  
     3     1     9 1   
     4     2    13 2   
     5     2    16 1   
     6     2    18 1   
     7     3    10 1   
     8     3    18 1   
     9     3    20 1   
    10     3    21 1   
    11     4     5 ar  
    12     4    22 1   
    13     5     6 ar  
    14     5    19 1   
    15     6    11 ar  
    16     6    23 1   
    17     7    11 ar  
    18     7    12 1   
    19     8     9 2   
    20     8    12 1   
    21     8    24 1   
    22     9    10 1   
    23    10    17 2   
    24    12    25 1   
    25    13    14 1   
    26    14    15 2   
    27    15    16 1   
    28    16    26 1   
@<TRIPOS>SUBSTRUCTURE
     1 QJ0         1 TEMP              0 ****  ****    0 ROOT
