@<TRIPOS>MOLECULE
QJ0
   26    28     1     0     0
SMALL
abcg2


@<TRIPOS>ATOM
      1 C18        -47.0770   -29.1810     4.3410 ca         1 QJ0      -0.090800
      2 C13        -44.0420   -31.2110     1.8160 cc         1 QJ0       0.442800
      3 C11        -44.7450   -28.6290     1.2540 c3         1 QJ0      -0.071400
      4 C19        -48.4530   -29.3280     4.1980 ca         1 QJ0       0.016000
      5 C02        -49.1670   -29.5870     5.3540 ca         1 QJ0      -0.102900
      6 C03        -48.5290   -29.6920     6.5960 ca         1 QJ0       0.387900
      7 C05        -46.5480   -29.3070     5.6380 ca         1 QJ0       0.366500
      8 C07        -44.8460   -28.9010     4.2730 cc         1 QJ0      -0.099100
      9 C08        -45.9680   -28.9210     3.4660 cd         1 QJ0      -0.233400
     10 C09        -46.0420   -28.7500     2.0310 c          1 QJ0       0.617300
     11 N04        -47.2230   -29.5530     6.7430 nb         1 QJ0      -0.672000
     12 N06        -45.1930   -29.1280     5.5530 na         1 QJ0      -0.300400
     13 N14        -44.8560   -32.0750     2.3730 nd         1 QJ0      -0.317000
     14 N15        -44.1880   -32.6140     3.3880 nd         1 QJ0      -0.045000
     15 N16        -43.0100   -32.1240     3.4780 nc         1 QJ0      -0.199800
     16 N17        -42.8950   -31.2520     2.5010 na         1 QJ0      -0.198700
     17 O10        -47.1060   -28.7430     1.4420 o          1 QJ0      -0.502100
     18 S12        -44.3610   -30.2120     0.4250 ss         1 QJ0      -0.271300
     19 BR1        -51.0380   -29.8020     5.2750 br         1 QJ0      -0.077100
     20 H112       -44.8790   -27.9240     0.4320 h1         1 QJ0       0.090200
     21 H111       -43.8880   -28.3010     1.8380 h1         1 QJ0       0.090200
     22 H191       -48.9360   -29.2450     3.2360 ha         1 QJ0       0.159000
     23 H031       -49.1020   -29.8950     7.4940 h4         1 QJ0       0.038100
     24 H071       -43.8120   -28.7290     4.0180 h4         1 QJ0       0.211000
     25 H061       -44.5510   -29.1590     6.3320 hn         1 QJ0       0.371000
     26 H171       -42.0380   -30.7320     2.3550 hn         1 QJ0       0.390000
@<TRIPOS>BOND
     1     1     4 ar  
     2     1     7 ar  
     3     1     9 1   
     4     2    13 2   
     5     2    16 1   
     6     2    18 1   
     7     3    10 1   
     8     3    18 1   
     9     3    20 1   
    10     3    21 1   
    11     4     5 ar  
    12     4    22 1   
    13     5     6 ar  
    14     5    19 1   
    15     6    11 ar  
    16     6    23 1   
    17     7    11 ar  
    18     7    12 1   
    19     8     9 2   
    20     8    12 1   
    21     8    24 1   
    22     9    10 1   
    23    10    17 2   
    24    12    25 1   
    25    13    14 1   
    26    14    15 2   
    27    15    16 1   
    28    16    26 1   
@<TRIPOS>SUBSTRUCTURE
     1 QJ0         1 TEMP              0 ****  ****    0 ROOT
