@<TRIPOS>MOLECULE
QJ1
   31    32     1     0     0
SMALL
No Charge or Current Charge


@<TRIPOS>ATOM
      1 C10         -2.4050    -0.4020    -0.2420 cc         1 QJ1      -0.209300
      2 C13         -4.9050    -0.4160     0.0580 cc         1 QJ1      -0.240000
      3 C15         -0.3600    -0.3260     1.2490 c3         1 QJ1      -0.096400
      4 C12         -4.4530    -1.3790    -0.8090 cd         1 QJ1      -0.133000
      5 C11         -3.0430    -1.3710    -0.9780 cd         1 QJ1      -0.116000
      6 C02          3.3600    -0.7840     0.2960 c          1 QJ1       0.639100
      7 C04          5.5070    -0.5380    -0.7670 c3         1 QJ1       0.169900
      8 C06          1.9530     1.3200     0.3480 c3         1 QJ1       0.118000
      9 C07          1.2140     1.6430    -0.9650 c3         1 QJ1       0.040600
     10 C09         -0.9270    -0.1190    -0.1770 c3         1 QJ1       0.173600
     11 C16          1.0730    -0.9050     1.2800 c3         1 QJ1       0.108000
     12 N05          2.1360    -0.1400     0.5780 n          1 QJ1      -0.413800
     13 O01          3.5840    -1.9520     0.5780 o          1 QJ1      -0.541000
     14 O03          4.2340     0.0180    -0.3880 os         1 QJ1      -0.456100
     15 S08         -0.6310     1.6120    -0.7670 ss         1 QJ1      -0.446000
     16 S14         -3.5690     0.5390     0.6930 ss         1 QJ1       0.215000
     17 H1          -5.9180    -0.1950     0.3700 h4         1 QJ1       0.150000
     18 H2          -0.4210     0.6040     1.8250 hc         1 QJ1       0.062700
     19 H3          -0.9980    -1.0450     1.7770 hc         1 QJ1       0.062700
     20 H4          -5.1100    -2.0800    -1.3160 ha         1 QJ1       0.135000
     21 H5          -2.5200    -2.0680    -1.6270 ha         1 QJ1       0.135000
     22 H6           6.0740    -0.8570     0.1170 h1         1 QJ1       0.048700
     23 H7           5.3740    -1.4040    -1.4280 h1         1 QJ1       0.048700
     24 H8           6.1050     0.2090    -1.3040 h1         1 QJ1       0.048700
     25 H9           2.9290     1.8210     0.3280 h1         1 QJ1       0.062200
     26 H10          1.4150     1.7680     1.1920 h1         1 QJ1       0.062200
     27 H11          1.4980     2.6530    -1.2890 h1         1 QJ1       0.078700
     28 H12          1.5220     0.9400    -1.7500 h1         1 QJ1       0.078700
     29 H13         -0.4220    -0.8110    -0.8660 h1         1 QJ1       0.086700
     30 H14          1.3770    -1.0220     2.3280 h1         1 QJ1       0.062700
     31 H15          1.0320    -1.9120     0.8450 h1         1 QJ1       0.062700
@<TRIPOS>BOND
     1     1     5 2   
     2     1    10 1   
     3     1    16 1   
     4     2     4 2   
     5     2    16 1   
     6     2    17 1   
     7     3    10 1   
     8     3    11 1   
     9     3    18 1   
    10     3    19 1   
    11     4     5 1   
    12     4    20 1   
    13     5    21 1   
    14     6    12 1   
    15     6    13 2   
    16     6    14 1   
    17     7    14 1   
    18     7    22 1   
    19     7    23 1   
    20     7    24 1   
    21     8     9 1   
    22     8    12 1   
    23     8    25 1   
    24     8    26 1   
    25     9    15 1   
    26     9    27 1   
    27     9    28 1   
    28    10    15 1   
    29    10    29 1   
    30    11    12 1   
    31    11    30 1   
    32    11    31 1   
@<TRIPOS>SUBSTRUCTURE
     1 QJ1         1 TEMP              0 ****  ****    0 ROOT
