@<TRIPOS>MOLECULE
QJ1
   31    32     1     0     0
SMALL
abcg2


@<TRIPOS>ATOM
      1 C10         -2.1570    -0.4820    -0.3110 cc         1 QJ1      -0.209300
      2 C13         -4.6340    -0.5030    -0.2750 cc         1 QJ1      -0.240000
      3 C15         -0.3370    -0.2480     1.4060 c3         1 QJ1      -0.096400
      4 C12         -4.1140    -1.5000    -1.0410 cd         1 QJ1      -0.133000
      5 C11         -2.6910    -1.4850    -1.0620 cd         1 QJ1      -0.116000
      6 C02          3.0460    -0.7910     0.2330 c          1 QJ1       0.639100
      7 C04          4.9260    -0.7500    -1.1810 c3         1 QJ1       0.169900
      8 C06          1.9960     1.3990     0.5990 c3         1 QJ1       0.118000
      9 C07          1.3290     1.7710    -0.7170 c3         1 QJ1       0.040600
     10 C09         -0.7150    -0.1710    -0.0790 c3         1 QJ1       0.173600
     11 C16          1.1040    -0.6740     1.6690 c3         1 QJ1       0.108000
     12 N05          2.0780    -0.0360     0.8020 n          1 QJ1      -0.413800
     13 O01          3.1790    -1.9900     0.3860 o          1 QJ1      -0.541000
     14 O03          3.8610    -0.0620    -0.5320 os         1 QJ1      -0.456100
     15 S08         -0.4640     1.5070    -0.7840 ss         1 QJ1      -0.446000
     16 S14         -3.4020     0.4610     0.4270 ss         1 QJ1       0.215000
     17 H1          -5.6730    -0.2800    -0.0880 h4         1 QJ1       0.150000
     18 H2          -0.5700     0.7040     1.8850 hc         1 QJ1       0.062700
     19 H3          -0.9690    -0.9930     1.8970 hc         1 QJ1       0.062700
     20 H4          -4.7180    -2.2200    -1.5730 ha         1 QJ1       0.135000
     21 H5          -2.0850    -2.1940    -1.6090 ha         1 QJ1       0.135000
     22 H6           5.5910    -1.2330    -0.4650 h1         1 QJ1       0.048700
     23 H7           4.5540    -1.4940    -1.8850 h1         1 QJ1       0.048700
     24 H8           5.4800     0.0100    -1.7250 h1         1 QJ1       0.048700
     25 H9           2.9900     1.8440     0.6300 h1         1 QJ1       0.062200
     26 H10          1.4470     1.8300     1.4380 h1         1 QJ1       0.062200
     27 H11          1.4470     2.8420    -0.8930 h1         1 QJ1       0.078700
     28 H12          1.8100     1.2530    -1.5450 h1         1 QJ1       0.078700
     29 H13         -0.1280    -0.8890    -0.6590 h1         1 QJ1       0.086700
     30 H14          1.3420    -0.4760     2.7180 h1         1 QJ1       0.062700
     31 H15          1.1830    -1.7480     1.5210 h1         1 QJ1       0.062700
@<TRIPOS>BOND
     1     1     5 2   
     2     1    10 1   
     3     1    16 1   
     4     2     4 2   
     5     2    16 1   
     6     2    17 1   
     7     3    10 1   
     8     3    11 1   
     9     3    18 1   
    10     3    19 1   
    11     4     5 1   
    12     4    20 1   
    13     5    21 1   
    14     6    12 1   
    15     6    13 2   
    16     6    14 1   
    17     7    14 1   
    18     7    22 1   
    19     7    23 1   
    20     7    24 1   
    21     8     9 1   
    22     8    12 1   
    23     8    25 1   
    24     8    26 1   
    25     9    15 1   
    26     9    27 1   
    27     9    28 1   
    28    10    15 1   
    29    10    29 1   
    30    11    12 1   
    31    11    30 1   
    32    11    31 1   
@<TRIPOS>SUBSTRUCTURE
     1 QJ1         1 TEMP              0 ****  ****    0 ROOT
