@<TRIPOS>MOLECULE
QJ2
   45    46     1     0     0
SMALL
No Charge or Current Charge


@<TRIPOS>ATOM
      1 N22         -5.9290     2.8940    -0.0380 nv         1 QJ2      -1.056900
      2 C22         -5.4860     1.6360    -0.0350 ca         1 QJ2       0.599900
      3 C23         -6.1070     0.5970    -0.7310 ca         1 QJ2      -0.232500
      4 C24         -5.5410    -0.6850    -0.6610 ca         1 QJ2       0.000700
      5 C27         -6.1630    -1.8660    -1.3870 c3         1 QJ2      -0.052800
      6 C25         -4.3790    -0.8340     0.1140 ca         1 QJ2      -0.216500
      7 N21         -4.3870     1.5170     0.6950 nb         1 QJ2      -0.753000
      8 C26         -3.8350     0.2850     0.7730 ca         1 QJ2       0.400800
      9 C12         -2.5710     0.1530     1.6110 c3         1 QJ2      -0.127200
     10 C11         -1.2910     0.0840     0.7470 c3         1 QJ2      -0.071900
     11 C10         -0.0020    -0.0610     1.5860 c3         1 QJ2      -0.075400
     12 C09          1.2760    -0.1310     0.7210 c3         1 QJ2      -0.071900
     13 C08          2.5670    -0.2750     1.5590 c3         1 QJ2      -0.127200
     14 C06          3.8210    -0.3330     0.6970 ca         1 QJ2       0.400800
     15 N01          4.3710    -1.5530     0.5040 nb         1 QJ2      -0.753000
     16 C02          5.4560    -1.6070    -0.2530 ca         1 QJ2       0.599900
     17 N02          5.9050    -2.8590    -0.3620 nv         1 QJ2      -1.056900
     18 C03          6.0740    -0.5100    -0.8560 ca         1 QJ2      -0.232500
     19 C04          5.5130     0.7610    -0.6620 ca         1 QJ2       0.000700
     20 C05          4.3580     0.8410     0.1330 ca         1 QJ2      -0.216500
     21 C07          6.1250     2.0010    -1.2920 c3         1 QJ2      -0.052800
     22 H1          -5.2630     3.5760     0.3030 hn         1 QJ2       0.468000
     23 H2          -6.5220     3.1820    -0.8070 hn         1 QJ2       0.468000
     24 H3          -7.0070     0.7800    -1.3090 ha         1 QJ2       0.118000
     25 H4          -5.3990    -2.5850    -1.7050 hc         1 QJ2       0.046033
     26 H5          -6.8710    -2.3940    -0.7380 hc         1 QJ2       0.046033
     27 H6          -6.7060    -1.5430    -2.2830 hc         1 QJ2       0.046033
     28 H7          -3.8980    -1.8040     0.2060 ha         1 QJ2       0.121000
     29 H8          -2.4870     0.9940     2.3110 hc         1 QJ2       0.051950
     30 H9          -2.6370    -0.7510     2.2270 hc         1 QJ2       0.051950
     31 H10         -1.3680    -0.7640     0.0550 hc         1 QJ2       0.047450
     32 H11         -1.2230     0.9910     0.1330 hc         1 QJ2       0.047450
     33 H12          0.0760     0.7890     2.2760 hc         1 QJ2       0.036200
     34 H13         -0.0720    -0.9680     2.2000 hc         1 QJ2       0.036200
     35 H14          1.2000    -0.9810     0.0320 hc         1 QJ2       0.047450
     36 H15          1.3450     0.7740     0.1050 hc         1 QJ2       0.047450
     37 H16          2.6420     0.5720     2.2510 hc         1 QJ2       0.051950
     38 H17          2.4910    -1.1740     2.1840 hc         1 QJ2       0.051950
     39 H18          5.5110    -3.5080     0.3080 hn         1 QJ2       0.468000
     40 H19          6.8810    -2.9890    -0.6010 hn         1 QJ2       0.468000
     41 H20          6.9640    -0.6430    -1.4630 ha         1 QJ2       0.118000
     42 H21          3.8780     1.7980     0.3150 ha         1 QJ2       0.121000
     43 H22          5.6730     2.2050    -2.2700 hc         1 QJ2       0.046033
     44 H23          5.9720     2.8850    -0.6610 hc         1 QJ2       0.046033
     45 H24          7.2050     1.8830    -1.4390 hc         1 QJ2       0.046033
@<TRIPOS>BOND
     1     1     2 1   
     2     1    22 1   
     3     1    23 1   
     4     2     3 ar  
     5     2     7 ar  
     6     3     4 ar  
     7     3    24 1   
     8     4     5 1   
     9     4     6 ar  
    10     5    25 1   
    11     5    26 1   
    12     5    27 1   
    13     6     8 ar  
    14     6    28 1   
    15     7     8 ar  
    16     8     9 1   
    17     9    10 1   
    18     9    29 1   
    19     9    30 1   
    20    10    11 1   
    21    10    31 1   
    22    10    32 1   
    23    11    12 1   
    24    11    33 1   
    25    11    34 1   
    26    12    13 1   
    27    12    35 1   
    28    12    36 1   
    29    13    14 1   
    30    13    37 1   
    31    13    38 1   
    32    14    15 ar  
    33    14    20 ar  
    34    15    16 ar  
    35    16    17 1   
    36    16    18 ar  
    37    17    39 1   
    38    17    40 1   
    39    18    19 ar  
    40    18    41 1   
    41    19    20 ar  
    42    19    21 1   
    43    20    42 1   
    44    21    43 1   
    45    21    44 1   
    46    21    45 1   
@<TRIPOS>SUBSTRUCTURE
     1 QJ2         1 TEMP              0 ****  ****    0 ROOT
