@<TRIPOS>MOLECULE
QJ2
   45    46     1     0     0
SMALL
abcg2


@<TRIPOS>ATOM
      1 N22         -5.5160     2.7340    -0.9540 nv         1 QJ2      -1.056900
      2 C22         -5.1840     1.4810    -0.5230 ca         1 QJ2       0.599900
      3 C23         -5.9740     0.3710    -0.8710 ca         1 QJ2      -0.232500
      4 C24         -5.6420    -0.8710    -0.3710 ca         1 QJ2       0.000700
      5 C27         -6.4470    -2.0880    -0.7110 c3         1 QJ2      -0.052800
      6 C25         -4.5250    -0.9670     0.4660 ca         1 QJ2      -0.216500
      7 N21         -4.1200     1.3760     0.2670 nb         1 QJ2      -0.753000
      8 C26         -3.7970     0.1740     0.7520 ca         1 QJ2       0.400800
      9 C12         -2.5530     0.1090     1.5900 c3         1 QJ2      -0.127200
     10 C11         -1.2890     0.1110     0.7280 c3         1 QJ2      -0.071900
     11 C10         -0.0130     0.0660     1.5570 c3         1 QJ2      -0.075400
     12 C09          1.2450     0.0290     0.6990 c3         1 QJ2      -0.071900
     13 C08          2.5260    -0.0140     1.5330 c3         1 QJ2      -0.127200
     14 C06          3.7560    -0.1190     0.6780 ca         1 QJ2       0.400800
     15 N01          3.9390    -1.2860     0.0540 nb         1 QJ2      -0.753000
     16 C02          4.9950    -1.4280    -0.7390 ca         1 QJ2       0.599900
     17 N02          5.1220    -2.6170    -1.3970 nv         1 QJ2      -1.056900
     18 C03          5.9290    -0.3960    -0.9400 ca         1 QJ2      -0.232500
     19 C04          5.7440     0.8090    -0.2960 ca         1 QJ2       0.000700
     20 C05          4.6250     0.9480     0.5350 ca         1 QJ2      -0.216500
     21 C07          6.7000     1.9480    -0.4820 c3         1 QJ2      -0.052800
     22 H1          -4.7880     3.4280    -0.8950 hn         1 QJ2       0.468000
     23 H2          -6.0850     2.8060    -1.7810 hn         1 QJ2       0.468000
     24 H3          -6.8310     0.4990    -1.5220 ha         1 QJ2       0.118000
     25 H4          -5.8310    -2.8300    -1.2220 hc         1 QJ2       0.046033
     26 H5          -6.8320    -2.5630     0.1920 hc         1 QJ2       0.046033
     27 H6          -7.2910    -1.8490    -1.3550 hc         1 QJ2       0.046033
     28 H7          -4.2260    -1.9230     0.8790 ha         1 QJ2       0.121000
     29 H8          -2.5280     0.9660     2.2690 hc         1 QJ2       0.051950
     30 H9          -2.5680    -0.7920     2.2090 hc         1 QJ2       0.051950
     31 H10         -1.3150    -0.7470     0.0490 hc         1 QJ2       0.047450
     32 H11         -1.2860     1.0040     0.0960 hc         1 QJ2       0.047450
     33 H12          0.0220     0.9360     2.2220 hc         1 QJ2       0.036200
     34 H13         -0.0320    -0.8150     2.2090 hc         1 QJ2       0.036200
     35 H14          1.2150    -0.8460     0.0430 hc         1 QJ2       0.047450
     36 H15          1.2690     0.9060     0.0430 hc         1 QJ2       0.047450
     37 H16          2.5840     0.8780     2.1610 hc         1 QJ2       0.051950
     38 H17          2.4850    -0.8750     2.2070 hc         1 QJ2       0.051950
     39 H18          4.5920    -3.3900    -1.0300 hn         1 QJ2       0.468000
     40 H19          6.0340    -2.8670    -1.7410 hn         1 QJ2       0.468000
     41 H20          6.7790    -0.5540    -1.5930 ha         1 QJ2       0.118000
     42 H21          4.4440     1.8760     1.0640 ha         1 QJ2       0.121000
     43 H22          6.2180     2.7720    -1.0110 hc         1 QJ2       0.046033
     44 H23          7.0350     2.3390     0.4790 hc         1 QJ2       0.046033
     45 H24          7.5760     1.6500    -1.0550 hc         1 QJ2       0.046033
@<TRIPOS>BOND
     1     1     2 1   
     2     1    22 1   
     3     1    23 1   
     4     2     3 ar  
     5     2     7 ar  
     6     3     4 ar  
     7     3    24 1   
     8     4     5 1   
     9     4     6 ar  
    10     5    25 1   
    11     5    26 1   
    12     5    27 1   
    13     6     8 ar  
    14     6    28 1   
    15     7     8 ar  
    16     8     9 1   
    17     9    10 1   
    18     9    29 1   
    19     9    30 1   
    20    10    11 1   
    21    10    31 1   
    22    10    32 1   
    23    11    12 1   
    24    11    33 1   
    25    11    34 1   
    26    12    13 1   
    27    12    35 1   
    28    12    36 1   
    29    13    14 1   
    30    13    37 1   
    31    13    38 1   
    32    14    15 ar  
    33    14    20 ar  
    34    15    16 ar  
    35    16    17 1   
    36    16    18 ar  
    37    17    39 1   
    38    17    40 1   
    39    18    19 ar  
    40    18    41 1   
    41    19    20 ar  
    42    19    21 1   
    43    20    42 1   
    44    21    43 1   
    45    21    44 1   
    46    21    45 1   
@<TRIPOS>SUBSTRUCTURE
     1 QJ2         1 TEMP              0 ****  ****    0 ROOT
