@<TRIPOS>MOLECULE
QJ4
   51    52     1     0     0
SMALL
No Charge or Current Charge


@<TRIPOS>ATOM
      1 N22          7.3080    -0.3320    -2.7720 nv         1 QJ4      -1.054400
      2 C22          6.8180    -0.1010    -1.5530 ca         1 QJ4       0.598900
      3 C23          7.4050     0.7750    -0.6380 ca         1 QJ4      -0.234000
      4 C24          6.8040     0.9290     0.6190 ca         1 QJ4       0.000700
      5 C27          7.3810     1.8700     1.6640 c3         1 QJ4      -0.052800
      6 C25          5.6410     0.1840     0.8720 ca         1 QJ4      -0.216000
      7 N21          5.7260    -0.8170    -1.3320 nb         1 QJ4      -0.751500
      8 C26          5.1360    -0.6750    -0.1230 ca         1 QJ4       0.400300
      9 C14          3.8740    -1.4910     0.1230 c3         1 QJ4      -0.126700
     10 C13          2.5860    -0.6460    -0.0010 c3         1 QJ4      -0.072400
     11 C12          1.3000    -1.4600     0.2570 c3         1 QJ4      -0.074400
     12 C11          0.0140    -0.6140     0.1340 c3         1 QJ4      -0.074400
     13 C10         -1.2730    -1.4280     0.3920 c3         1 QJ4      -0.074400
     14 C09         -2.5580    -0.5810     0.2700 c3         1 QJ4      -0.072400
     15 C08         -3.8470    -1.3960     0.5260 c3         1 QJ4      -0.126700
     16 C06         -5.1080    -0.5530     0.3920 ca         1 QJ4       0.400300
     17 N01         -5.6980    -0.1540     1.5420 nb         1 QJ4      -0.751500
     18 C02         -6.7910     0.5850     1.4280 ca         1 QJ4       0.598900
     19 N02         -7.2830     0.9060     2.6260 nv         1 QJ4      -1.054400
     20 C03         -7.3790     0.9750     0.2230 ca         1 QJ4      -0.234000
     21 C04         -6.7740     0.5690    -0.9760 ca         1 QJ4       0.000700
     22 C05         -5.6120    -0.2140    -0.8780 ca         1 QJ4      -0.216000
     23 C07         -7.3550     0.9550    -2.3250 c3         1 QJ4      -0.052800
     24 H1           8.2890    -0.1240    -2.9270 hn         1 QJ4       0.466750
     25 H2           6.9350    -1.1480    -3.2410 hn         1 QJ4       0.466750
     26 H3           8.3040     1.3250    -0.9000 ha         1 QJ4       0.118000
     27 H4           6.9320     2.8660     1.5810 hc         1 QJ4       0.045867
     28 H5           7.1950     1.5000     2.6790 hc         1 QJ4       0.045867
     29 H6           8.4660     1.9790     1.5460 hc         1 QJ4       0.045867
     30 H7           5.1290     0.2660     1.8270 ha         1 QJ4       0.121000
     31 H8           3.8200    -2.3330    -0.5780 hc         1 QJ4       0.051700
     32 H9           3.9180    -1.9330     1.1260 hc         1 QJ4       0.051700
     33 H10          2.6330     0.1890     0.7100 hc         1 QJ4       0.047450
     34 H11          2.5410    -0.2070    -1.0060 hc         1 QJ4       0.047450
     35 H12          1.2520    -2.2930    -0.4550 hc         1 QJ4       0.035950
     36 H13          1.3470    -1.9000     1.2620 hc         1 QJ4       0.035950
     37 H14          0.0620     0.2190     0.8470 hc         1 QJ4       0.039700
     38 H15         -0.0330    -0.1740    -0.8700 hc         1 QJ4       0.039700
     39 H16         -1.3200    -2.2610    -0.3200 hc         1 QJ4       0.035950
     40 H17         -1.2250    -1.8680     1.3970 hc         1 QJ4       0.035950
     41 H18         -2.5130     0.2510     0.9840 hc         1 QJ4       0.047450
     42 H19         -2.6040    -0.1390    -0.7330 hc         1 QJ4       0.047450
     43 H20         -3.8920    -2.2300    -0.1840 hc         1 QJ4       0.051700
     44 H21         -3.7930    -1.8480     1.5240 hc         1 QJ4       0.051700
     45 H22         -6.9040     0.3690     3.3970 hn         1 QJ4       0.466750
     46 H23         -8.2650     1.1520     2.6820 hn         1 QJ4       0.466750
     47 H24         -8.2800     1.5800     0.2190 ha         1 QJ4       0.118000
     48 H25         -5.1020    -0.5590    -1.7730 ha         1 QJ4       0.121000
     49 H26         -6.5680     1.0730    -3.0790 hc         1 QJ4       0.045867
     50 H27         -8.0510     0.1880    -2.6840 hc         1 QJ4       0.045867
     51 H28         -7.9020     1.9040    -2.2680 hc         1 QJ4       0.045867
@<TRIPOS>BOND
     1     1     2 1   
     2     1    24 1   
     3     1    25 1   
     4     2     3 ar  
     5     2     7 ar  
     6     3     4 ar  
     7     3    26 1   
     8     4     5 1   
     9     4     6 ar  
    10     5    27 1   
    11     5    28 1   
    12     5    29 1   
    13     6     8 ar  
    14     6    30 1   
    15     7     8 ar  
    16     8     9 1   
    17     9    10 1   
    18     9    31 1   
    19     9    32 1   
    20    10    11 1   
    21    10    33 1   
    22    10    34 1   
    23    11    12 1   
    24    11    35 1   
    25    11    36 1   
    26    12    13 1   
    27    12    37 1   
    28    12    38 1   
    29    13    14 1   
    30    13    39 1   
    31    13    40 1   
    32    14    15 1   
    33    14    41 1   
    34    14    42 1   
    35    15    16 1   
    36    15    43 1   
    37    15    44 1   
    38    16    17 ar  
    39    16    22 ar  
    40    17    18 ar  
    41    18    19 1   
    42    18    20 ar  
    43    19    45 1   
    44    19    46 1   
    45    20    21 ar  
    46    20    47 1   
    47    21    22 ar  
    48    21    23 1   
    49    22    48 1   
    50    23    49 1   
    51    23    50 1   
    52    23    51 1   
@<TRIPOS>SUBSTRUCTURE
     1 QJ4         1 TEMP              0 ****  ****    0 ROOT
