@<TRIPOS>MOLECULE
QJ4
   51    52     1     0     0
SMALL
abcg2


@<TRIPOS>ATOM
      1 N22          6.9180     0.4300    -2.7720 nv         1 QJ4      -1.054400
      2 C22          6.5580     0.2550    -1.4660 ca         1 QJ4       0.598900
      3 C23          7.2810     0.8770    -0.4340 ca         1 QJ4      -0.234000
      4 C24          6.8610     0.7160     0.8710 ca         1 QJ4       0.000700
      5 C27          7.5800     1.3790     2.0060 c3         1 QJ4      -0.052800
      6 C25          5.7290    -0.0720     1.1060 ca         1 QJ4      -0.216000
      7 N21          5.4830    -0.4910    -1.2300 nb         1 QJ4      -0.751500
      8 C26          5.0770    -0.6510     0.0310 ca         1 QJ4       0.400300
      9 C14          3.8330    -1.4680     0.2320 c3         1 QJ4      -0.126700
     10 C13          2.5650    -0.6410     0.0160 c3         1 QJ4      -0.072400
     11 C12          1.2930    -1.4630     0.1810 c3         1 QJ4      -0.074400
     12 C11          0.0250    -0.6350     0.0190 c3         1 QJ4      -0.074400
     13 C10         -1.2510    -1.4530     0.1740 c3         1 QJ4      -0.074400
     14 C09         -2.5130    -0.6080     0.0590 c3         1 QJ4      -0.072400
     15 C08         -3.7940    -1.4300     0.2070 c3         1 QJ4      -0.126700
     16 C06         -5.0240    -0.5690     0.1700 ca         1 QJ4       0.400300
     17 N01         -5.2130     0.2270     1.2260 nb         1 QJ4      -0.751500
     18 C02         -6.2620     1.0410     1.2350 ca         1 QJ4       0.598900
     19 N02         -6.3920     1.8750     2.3090 nv         1 QJ4      -1.054400
     20 C03         -7.1850     1.0880     0.1760 ca         1 QJ4      -0.234000
     21 C04         -6.9980     0.2610    -0.9130 ca         1 QJ4       0.000700
     22 C05         -5.8840    -0.5860    -0.9140 ca         1 QJ4      -0.216000
     23 C07         -7.9670     0.2500    -2.0560 c3         1 QJ4      -0.052800
     24 H1           7.8660     0.7140    -2.9550 hn         1 QJ4       0.466750
     25 H2           6.5650    -0.2530    -3.4220 hn         1 QJ4       0.466750
     26 H3           8.1600     1.4680    -0.6660 ha         1 QJ4       0.118000
     27 H4           7.0240     2.2540     2.3470 hc         1 QJ4       0.045867
     28 H5           7.6790     0.7080     2.8600 hc         1 QJ4       0.045867
     29 H6           8.5750     1.7130     1.7140 hc         1 QJ4       0.045867
     30 H7           5.3680    -0.2330     2.1140 ha         1 QJ4       0.121000
     31 H8           3.8400    -2.3090    -0.4680 hc         1 QJ4       0.051700
     32 H9           3.8220    -1.8890     1.2400 hc         1 QJ4       0.051700
     33 H10          2.5560     0.1940     0.7240 hc         1 QJ4       0.047450
     34 H11          2.5880    -0.1960    -0.9840 hc         1 QJ4       0.047450
     35 H12          1.2920    -2.2810    -0.5470 hc         1 QJ4       0.035950
     36 H13          1.2920    -1.9370     1.1690 hc         1 QJ4       0.035950
     37 H14          0.0260     0.1760     0.7560 hc         1 QJ4       0.039700
     38 H15          0.0280    -0.1510    -0.9640 hc         1 QJ4       0.039700
     39 H16         -1.2700    -2.2460    -0.5820 hc         1 QJ4       0.035950
     40 H17         -1.2430    -1.9590     1.1460 hc         1 QJ4       0.035950
     41 H18         -2.4990     0.1740     0.8230 hc         1 QJ4       0.047450
     42 H19         -2.5230    -0.0940    -0.9080 hc         1 QJ4       0.047450
     43 H20         -3.8420    -2.1800    -0.5860 hc         1 QJ4       0.051700
     44 H21         -3.7650    -1.9720     1.1570 hc         1 QJ4       0.051700
     45 H22         -5.8870     1.6110     3.1390 hn         1 QJ4       0.466750
     46 H23         -7.3030     2.2640     2.4890 hn         1 QJ4       0.466750
     47 H24         -8.0290     1.7660     0.2200 ha         1 QJ4       0.118000
     48 H25         -5.6960    -1.2500    -1.7480 ha         1 QJ4       0.121000
     49 H26         -7.4470     0.2650    -3.0140 hc         1 QJ4       0.045867
     50 H27         -8.5720    -0.6580    -2.0350 hc         1 QJ4       0.045867
     51 H28         -8.6430     1.1030    -2.0200 hc         1 QJ4       0.045867
@<TRIPOS>BOND
     1     1     2 1   
     2     1    24 1   
     3     1    25 1   
     4     2     3 ar  
     5     2     7 ar  
     6     3     4 ar  
     7     3    26 1   
     8     4     5 1   
     9     4     6 ar  
    10     5    27 1   
    11     5    28 1   
    12     5    29 1   
    13     6     8 ar  
    14     6    30 1   
    15     7     8 ar  
    16     8     9 1   
    17     9    10 1   
    18     9    31 1   
    19     9    32 1   
    20    10    11 1   
    21    10    33 1   
    22    10    34 1   
    23    11    12 1   
    24    11    35 1   
    25    11    36 1   
    26    12    13 1   
    27    12    37 1   
    28    12    38 1   
    29    13    14 1   
    30    13    39 1   
    31    13    40 1   
    32    14    15 1   
    33    14    41 1   
    34    14    42 1   
    35    15    16 1   
    36    15    43 1   
    37    15    44 1   
    38    16    17 ar  
    39    16    22 ar  
    40    17    18 ar  
    41    18    19 1   
    42    18    20 ar  
    43    19    45 1   
    44    19    46 1   
    45    20    21 ar  
    46    20    47 1   
    47    21    22 ar  
    48    21    23 1   
    49    22    48 1   
    50    23    49 1   
    51    23    50 1   
    52    23    51 1   
@<TRIPOS>SUBSTRUCTURE
     1 QJ4         1 TEMP              0 ****  ****    0 ROOT
