@<TRIPOS>MOLECULE
QJ5
   52    55     1     0     0
SMALL
No Charge or Current Charge


@<TRIPOS>ATOM
      1 C1          -2.4600    43.2440    -4.3730 ca         1 QJ5       0.231000
      2 C10         -5.1120    44.8090    -7.4430 cx         1 QJ5      -0.037400
      3 C11         -6.6190    44.9500    -7.4310 cx         1 QJ5      -0.123900
      4 C12         -5.9010    44.4880    -6.1900 cx         1 QJ5      -0.123900
      5 C13         -2.6920    43.4060    -5.7520 ca         1 QJ5      -0.089000
      6 C14         -1.4460    46.4380    -5.2120 ca         1 QJ5      -0.279500
      7 C15         -2.4320    47.0640    -6.0000 ca         1 QJ5      -0.007500
      8 C16         -2.1160    47.5120    -7.2940 ca         1 QJ5      -0.135500
      9 C17         -0.8180    47.3410    -7.8110 ca         1 QJ5       0.002700
     10 C18         -0.4810    47.8250    -9.2140 c3         1 QJ5      -0.054100
     11 C19         -0.0140    49.2970    -9.2240 c3         1 QJ5      -0.068400
     12 C2          -2.9840    42.1170    -3.7170 ca         1 QJ5      -0.134000
     13 C20          0.3340    49.8120   -10.6340 c3         1 QJ5      -0.091100
     14 C21          0.1660    46.7240    -7.0150 ca         1 QJ5      -0.135500
     15 C22         -0.1440    46.2730    -5.7210 ca         1 QJ5      -0.007500
     16 C3          -3.7530    41.1740    -4.4210 ca         1 QJ5      -0.103000
     17 C4          -3.9940    41.3510    -5.7930 ca         1 QJ5      -0.095000
     18 C5          -3.4660    42.4700    -6.4640 ca         1 QJ5       0.060800
     19 C6          -3.7150    42.4160    -9.8970 cc         1 QJ5       0.268900
     20 C7          -4.4420    43.5870    -9.6170 cc         1 QJ5      -0.204600
     21 C8          -5.0340    44.4440   -10.6720 c          1 QJ5       0.738600
     22 C9          -4.4550    43.7370    -8.2490 cd         1 QJ5      -0.105300
     23 N1          -1.6950    44.1480    -3.6390 nu         1 QJ5      -0.886100
     24 N2          -3.6920    42.6320    -7.8330 na         1 QJ5       0.175000
     25 N3          -3.2390    41.7970    -8.8350 nd         1 QJ5      -0.569800
     26 O1          -0.7860    46.1880    -2.6340 o          1 QJ5      -0.556000
     27 O2          -5.6100    45.4770   -10.3680 o          1 QJ5      -0.724000
     28 O3          -4.9040    44.0910   -11.8350 o          1 QJ5      -0.724000
     29 O4          -3.2630    46.0400    -3.2720 o          1 QJ5      -0.556000
     30 S1          -1.8470    45.8210    -3.5740 sy         1 QJ5       1.141600
     31 H6          -4.5380    45.7310    -7.4280 hc         1 QJ5       0.077700
     32 H8          -7.0300    45.9560    -7.4360 hc         1 QJ5       0.068200
     33 H7          -7.2010    44.2160    -7.9810 hc         1 QJ5       0.068200
     34 H10         -5.8240    45.1820    -5.3570 hc         1 QJ5       0.068200
     35 H9          -6.0290    43.4480    -5.9040 hc         1 QJ5       0.068200
     36 H11         -2.2640    44.2450    -6.2860 ha         1 QJ5       0.144000
     37 H12         -3.4440    47.2010    -5.6200 ha         1 QJ5       0.131500
     38 H13         -2.8830    47.9920    -7.8970 ha         1 QJ5       0.119500
     39 H15         -1.3560    47.7190    -9.8670 hc         1 QJ5       0.070200
     40 H14          0.3030    47.1950    -9.6510 hc         1 QJ5       0.070200
     41 H17          0.8650    49.4020    -8.5780 hc         1 QJ5       0.037700
     42 H16         -0.8020    49.9290    -8.7970 hc         1 QJ5       0.037700
     43 H2          -2.8030    41.9700    -2.6550 ha         1 QJ5       0.111000
     44 H20          0.6580    50.8580   -10.5890 hc         1 QJ5       0.033700
     45 H19          1.1450    49.2200   -11.0750 hc         1 QJ5       0.033700
     46 H18         -0.5390    49.7520   -11.2960 hc         1 QJ5       0.033700
     47 H21          1.1740    46.5900    -7.4020 ha         1 QJ5       0.119500
     48 H22          0.6240    45.7870    -5.1200 ha         1 QJ5       0.131500
     49 H3          -4.1590    40.3070    -3.9040 ha         1 QJ5       0.110000
     50 H4          -4.5860    40.6200    -6.3380 ha         1 QJ5       0.135000
     51 H5          -3.5080    41.9930   -10.8720 h4         1 QJ5       0.039100
     52 H1          -1.5300    43.8920    -2.6760 hn         1 QJ5       0.483000
@<TRIPOS>BOND
     1     1     5 ar  
     2     1    12 ar  
     3     1    23 1   
     4     2     3 1   
     5     2     4 1   
     6     2    22 1   
     7     2    31 1   
     8     3     4 1   
     9     3    32 1   
    10     3    33 1   
    11     4    34 1   
    12     4    35 1   
    13     5    18 ar  
    14     5    36 1   
    15     6     7 ar  
    16     6    15 ar  
    17     6    30 1   
    18     7     8 ar  
    19     7    37 1   
    20     8     9 ar  
    21     8    38 1   
    22     9    10 1   
    23     9    14 ar  
    24    10    11 1   
    25    10    39 1   
    26    10    40 1   
    27    11    13 1   
    28    11    41 1   
    29    11    42 1   
    30    12    16 ar  
    31    12    43 1   
    32    13    44 1   
    33    13    45 1   
    34    13    46 1   
    35    14    15 ar  
    36    14    47 1   
    37    15    48 1   
    38    16    17 ar  
    39    16    49 1   
    40    17    18 ar  
    41    17    50 1   
    42    18    24 1   
    43    19    20 1   
    44    19    25 2   
    45    19    51 1   
    46    20    21 1   
    47    20    22 2   
    48    21    27 1   
    49    21    28 1   
    50    22    24 1   
    51    23    30 1   
    52    23    52 1   
    53    24    25 1   
    54    26    30 2   
    55    29    30 2   
@<TRIPOS>SUBSTRUCTURE
     1 QJ5         1 TEMP              0 ****  ****    0 ROOT
