@<TRIPOS>MOLECULE
QJ5
   52    55     1     0     0
SMALL
abcg2


@<TRIPOS>ATOM
      1 C1          -2.3710    43.1610    -4.3910 ca         1 QJ5       0.231000
      2 C10         -3.9020    44.8670    -8.0620 cx         1 QJ5      -0.037400
      3 C11         -4.9980    45.7560    -8.5500 cx         1 QJ5      -0.123900
      4 C12         -5.0770    45.1810    -7.1740 cx         1 QJ5      -0.123900
      5 C13         -2.5150    43.1470    -5.7720 ca         1 QJ5      -0.089000
      6 C14         -1.5200    46.2720    -4.8610 ca         1 QJ5      -0.279500
      7 C15         -2.6410    47.0440    -5.1200 ca         1 QJ5      -0.007500
      8 C16         -2.7080    47.7510    -6.3110 ca         1 QJ5      -0.135500
      9 C17         -1.6810    47.6940    -7.2510 ca         1 QJ5       0.002700
     10 C18         -1.8370    48.4100    -8.5650 c3         1 QJ5      -0.054100
     11 C19         -0.5470    48.8900    -9.2200 c3         1 QJ5      -0.068400
     12 C2          -3.2770    42.4750    -3.5890 ca         1 QJ5      -0.134000
     13 C20         -0.8260    49.6970   -10.4810 c3         1 QJ5      -0.091100
     14 C21         -0.5550    46.9230    -6.9520 ca         1 QJ5      -0.135500
     15 C22         -0.4650    46.2200    -5.7640 ca         1 QJ5      -0.007500
     16 C3          -4.3130    41.7640    -4.1780 ca         1 QJ5      -0.103000
     17 C4          -4.4690    41.7530    -5.5560 ca         1 QJ5      -0.095000
     18 C5          -3.5700    42.4540    -6.3480 ca         1 QJ5       0.060800
     19 C6          -3.7480    41.5810    -9.6760 cc         1 QJ5       0.268900
     20 C7          -3.7840    42.9770    -9.8740 cc         1 QJ5      -0.204600
     21 C8          -3.8000    43.6810   -11.2050 c          1 QJ5       0.738600
     22 C9          -3.7670    43.4980    -8.5930 cd         1 QJ5      -0.105300
     23 N1          -1.2390    43.8220    -3.8370 nu         1 QJ5      -0.886100
     24 N2          -3.6950    42.4300    -7.7550 na         1 QJ5       0.175000
     25 N3          -3.6880    41.2580    -8.4020 nd         1 QJ5      -0.569800
     26 O1          -0.1080    45.7100    -2.7010 o          1 QJ5      -0.556000
     27 O2          -3.5460    44.9010   -11.2110 o          1 QJ5      -0.724000
     28 O3          -4.0450    42.9590   -12.1940 o          1 QJ5      -0.724000
     29 O4          -2.6050    45.6290    -2.5740 o          1 QJ5      -0.556000
     30 S1          -1.3830    45.4060    -3.3300 sy         1 QJ5       1.141600
     31 H6          -2.9720    45.3640    -7.8070 hc         1 QJ5       0.077700
     32 H8          -4.7690    46.8080    -8.6610 hc         1 QJ5       0.068200
     33 H7          -5.6620    45.3620    -9.3070 hc         1 QJ5       0.068200
     34 H10         -4.9080    45.8250    -6.3230 hc         1 QJ5       0.068200
     35 H9          -5.7990    44.3920    -6.9980 hc         1 QJ5       0.068200
     36 H11         -1.7840    43.6480    -6.3920 ha         1 QJ5       0.144000
     37 H12         -3.4600    47.0950    -4.4170 ha         1 QJ5       0.131500
     38 H13         -3.5870    48.3490    -6.5180 ha         1 QJ5       0.119500
     39 H15         -2.5070    49.2610    -8.4190 hc         1 QJ5       0.070200
     40 H14         -2.3620    47.7390    -9.2570 hc         1 QJ5       0.070200
     41 H17          0.0860    48.0370    -9.4750 hc         1 QJ5       0.037700
     42 H16          0.0210    49.4960    -8.5100 hc         1 QJ5       0.037700
     43 H2          -3.1590    42.4780    -2.5130 ha         1 QJ5       0.111000
     44 H20          0.1010    50.0270   -10.9510 hc         1 QJ5       0.033700
     45 H19         -1.3770    49.1050   -11.2140 hc         1 QJ5       0.033700
     46 H18         -1.4200    50.5840   -10.2580 hc         1 QJ5       0.033700
     47 H21          0.2660    46.8560    -7.6540 ha         1 QJ5       0.119500
     48 H22          0.4140    45.6230    -5.5580 ha         1 QJ5       0.131500
     49 H3          -5.0120    41.2210    -3.5570 ha         1 QJ5       0.110000
     50 H4          -5.2810    41.2050    -6.0140 ha         1 QJ5       0.135000
     51 H5          -3.7480    40.8080   -10.4290 h4         1 QJ5       0.039100
     52 H1          -0.7400    43.2810    -3.1360 hn         1 QJ5       0.483000
@<TRIPOS>BOND
     1     1     5 ar  
     2     1    12 ar  
     3     1    23 1   
     4     2     3 1   
     5     2     4 1   
     6     2    22 1   
     7     2    31 1   
     8     3     4 1   
     9     3    32 1   
    10     3    33 1   
    11     4    34 1   
    12     4    35 1   
    13     5    18 ar  
    14     5    36 1   
    15     6     7 ar  
    16     6    15 ar  
    17     6    30 1   
    18     7     8 ar  
    19     7    37 1   
    20     8     9 ar  
    21     8    38 1   
    22     9    10 1   
    23     9    14 ar  
    24    10    11 1   
    25    10    39 1   
    26    10    40 1   
    27    11    13 1   
    28    11    41 1   
    29    11    42 1   
    30    12    16 ar  
    31    12    43 1   
    32    13    44 1   
    33    13    45 1   
    34    13    46 1   
    35    14    15 ar  
    36    14    47 1   
    37    15    48 1   
    38    16    17 ar  
    39    16    49 1   
    40    17    18 ar  
    41    17    50 1   
    42    18    24 1   
    43    19    20 1   
    44    19    25 2   
    45    19    51 1   
    46    20    21 1   
    47    20    22 2   
    48    21    27 1   
    49    21    28 1   
    50    22    24 1   
    51    23    30 1   
    52    23    52 1   
    53    24    25 1   
    54    26    30 2   
    55    29    30 2   
@<TRIPOS>SUBSTRUCTURE
     1 QJ5         1 TEMP              0 ****  ****    0 ROOT
