@<TRIPOS>MOLECULE
QJ6
   38    40     1     0     0
SMALL
No Charge or Current Charge


@<TRIPOS>ATOM
      1 N1         -15.9080     5.4690    26.0630 nb         1 QJ6      -0.643000
      2 C4         -17.1730     5.2720    26.5020 ca         1 QJ6       0.320900
      3 C5         -15.6540     6.5900    25.3530 ca         1 QJ6       0.345900
      4 C6         -16.6390     7.5480    25.0500 ca         1 QJ6      -0.086000
      5 C7         -16.3130     8.6960    24.3020 ca         1 QJ6      -0.078000
      6 C8         -17.3040     9.6460    24.0070 ca         1 QJ6      -0.110000
      7 C10        -18.9500     8.3080    25.2050 ca         1 QJ6      -0.110000
      8 C13        -21.4650     5.1160    30.3890 ca         1 QJ6      -0.070000
      9 C15        -23.1830     4.0640    31.7600 ca         1 QJ6       0.133000
     10 C17        -23.3730     4.0410    29.3310 ca         1 QJ6      -0.073000
     11 C16        -23.8850     3.6980    30.5940 ca         1 QJ6       0.117000
     12 Cl         -23.7960     3.6520    33.3630 cl         1 QJ6      -0.173000
     13 C14        -21.9760     4.7730    31.6530 ca         1 QJ6      -0.099000
     14 C12        -22.1580     4.7480    29.2140 ca         1 QJ6      -0.100300
     15 C1         -21.6350     5.1150    27.8130 c3         1 QJ6       0.133600
     16 O          -22.1900     6.4010    27.3990 os         1 QJ6      -0.464000
     17 C          -21.9530     7.5350    28.2630 c3         1 QJ6       0.133900
     18 C2         -20.0840     5.0310    27.6440 c          1 QJ6       0.574100
     19 O1         -19.3920     4.2240    28.2570 o          1 QJ6      -0.571100
     20 C3         -18.2390     6.1760    26.2590 ca         1 QJ6      -0.074000
     21 C11        -17.9600     7.3440    25.5070 ca         1 QJ6      -0.027000
     22 C9         -18.6190     9.4520    24.4580 ca         1 QJ6      -0.090000
     23 H1         -17.3220     4.3460    27.0500 h4         1 QJ6       0.042100
     24 H2         -14.6260     6.7210    25.0140 h4         1 QJ6       0.022100
     25 H3         -15.2950     8.8520    23.9510 ha         1 QJ6       0.120000
     26 H4         -17.0520    10.5330    23.4290 ha         1 QJ6       0.119000
     27 H5         -19.9770     8.1900    25.5420 ha         1 QJ6       0.111000
     28 H6         -20.5310     5.6710    30.3300 ha         1 QJ6       0.130000
     29 H7         -23.9280     3.7580    28.4390 ha         1 QJ6       0.136000
     30 H8         -21.4350     5.0590    32.5520 ha         1 QJ6       0.137000
     31 H9         -22.0030     4.3500    27.1180 h1         1 QJ6       0.101700
     32 H10        -22.3220     8.4530    27.7890 h1         1 QJ6       0.042033
     33 H11        -22.4800     7.4210    29.2190 h1         1 QJ6       0.042033
     34 H12        -20.8830     7.6670    28.4680 h1         1 QJ6       0.042033
     35 H14        -19.3850    10.1910    24.2290 ha         1 QJ6       0.115000
     36 N          -19.5660     5.9370    26.7270 ns         1 QJ6      -0.149000
     37 Cl1        -25.4090     2.8130    30.6890 cl         1 QJ6      -0.174000
     38 H13        -20.2660     6.5430    26.3170 hn         1 QJ6       0.172000
@<TRIPOS>BOND
     1     1     2 ar  
     2     1     3 ar  
     3     2    20 ar  
     4     2    23 1   
     5     3     4 ar  
     6     3    24 1   
     7     4     5 ar  
     8     4    21 ar  
     9     5     6 ar  
    10     5    25 1   
    11     6    22 ar  
    12     6    26 1   
    13     7    21 ar  
    14     7    22 ar  
    15     7    27 1   
    16     8    13 ar  
    17     8    14 ar  
    18     8    28 1   
    19     9    11 ar  
    20     9    12 1   
    21     9    13 ar  
    22    10    11 ar  
    23    10    14 ar  
    24    10    29 1   
    25    11    37 1   
    26    13    30 1   
    27    14    15 1   
    28    15    16 1   
    29    15    18 1   
    30    15    31 1   
    31    16    17 1   
    32    17    32 1   
    33    17    33 1   
    34    17    34 1   
    35    18    19 2   
    36    18    36 1   
    37    20    21 ar  
    38    20    36 1   
    39    22    35 1   
    40    36    38 1   
@<TRIPOS>SUBSTRUCTURE
     1 QJ6         1 TEMP              0 ****  ****    0 ROOT
