@<TRIPOS>MOLECULE
QJ6
   38    40     1     0     0
SMALL
abcg2


@<TRIPOS>ATOM
      1 N1         -16.1590     5.1910    25.5950 nb         1 QJ6      -0.643000
      2 C4         -17.4320     5.0010    26.0200 ca         1 QJ6       0.320900
      3 C5         -15.8090     6.3920    25.1950 ca         1 QJ6       0.345900
      4 C6         -16.6840     7.5030    25.1910 ca         1 QJ6      -0.086000
      5 C7         -16.2650     8.7800    24.7520 ca         1 QJ6      -0.078000
      6 C8         -17.1340     9.8400    24.7800 ca         1 QJ6      -0.110000
      7 C10        -18.8870     8.4310    25.6840 ca         1 QJ6      -0.110000
      8 C13        -21.3240     5.4290    30.1860 ca         1 QJ6      -0.070000
      9 C15        -22.8990     4.6120    31.8120 ca         1 QJ6       0.133000
     10 C17        -23.1190     3.9950    29.4940 ca         1 QJ6      -0.073000
     11 C16        -23.5760     3.9280    30.8040 ca         1 QJ6       0.117000
     12 CL         -23.4320     4.5460    33.4650 cl         1 QJ6      -0.173000
     13 C14        -21.7730     5.3640    31.4950 ca         1 QJ6      -0.099000
     14 C12        -21.9930     4.7450    29.1720 ca         1 QJ6      -0.100300
     15 C1         -21.5890     4.8410    27.7180 c3         1 QJ6       0.133600
     16 O          -22.3040     5.8420    26.9940 os         1 QJ6      -0.464000
     17 C          -22.4270     7.1190    27.6280 c3         1 QJ6       0.133900
     18 C2         -20.0650     4.9340    27.5210 c          1 QJ6       0.574100
     19 O1         -19.3040     4.2580    28.1980 o          1 QJ6      -0.571100
     20 C3         -18.3740     6.0030    26.0720 ca         1 QJ6      -0.074000
     21 C11        -18.0160     7.3170    25.6560 ca         1 QJ6      -0.027000
     22 C9         -18.4510     9.6610    25.2540 ca         1 QJ6      -0.090000
     23 H1         -17.6920     3.9990    26.3270 h4         1 QJ6       0.042100
     24 H2         -14.7880     6.5270    24.8490 h4         1 QJ6       0.022100
     25 H3         -15.2490     8.9030    24.3980 ha         1 QJ6       0.120000
     26 H4         -16.8140    10.8190    24.4450 ha         1 QJ6       0.119000
     27 H5         -19.8980     8.3280    26.0530 ha         1 QJ6       0.111000
     28 H6         -20.4470     6.0190    29.9610 ha         1 QJ6       0.130000
     29 H7         -23.6530     3.4560    28.7230 ha         1 QJ6       0.136000
     30 H8         -21.2530     5.8940    32.2810 ha         1 QJ6       0.137000
     31 H9         -21.8690     3.9060    27.2260 h1         1 QJ6       0.101700
     32 H10        -22.8500     7.7850    26.8780 h1         1 QJ6       0.042033
     33 H11        -23.0950     7.0700    28.4900 h1         1 QJ6       0.042033
     34 H12        -21.4570     7.5080    27.9470 h1         1 QJ6       0.042033
     35 H14        -19.1250    10.5070    25.2840 ha         1 QJ6       0.115000
     36 N          -19.6890     5.7560    26.5130 ns         1 QJ6      -0.149000
     37 CL1        -24.9880     2.9750    31.1530 cl         1 QJ6      -0.174000
     38 H13        -20.4480     6.2180    26.0330 hn         1 QJ6       0.172000
@<TRIPOS>BOND
     1     1     2 ar  
     2     1     3 ar  
     3     2    20 ar  
     4     2    23 1   
     5     3     4 ar  
     6     3    24 1   
     7     4     5 ar  
     8     4    21 ar  
     9     5     6 ar  
    10     5    25 1   
    11     6    22 ar  
    12     6    26 1   
    13     7    21 ar  
    14     7    22 ar  
    15     7    27 1   
    16     8    13 ar  
    17     8    14 ar  
    18     8    28 1   
    19     9    11 ar  
    20     9    12 1   
    21     9    13 ar  
    22    10    11 ar  
    23    10    14 ar  
    24    10    29 1   
    25    11    37 1   
    26    13    30 1   
    27    14    15 1   
    28    15    16 1   
    29    15    18 1   
    30    15    31 1   
    31    16    17 1   
    32    17    32 1   
    33    17    33 1   
    34    17    34 1   
    35    18    19 2   
    36    18    36 1   
    37    20    21 ar  
    38    20    36 1   
    39    22    35 1   
    40    36    38 1   
@<TRIPOS>SUBSTRUCTURE
     1 QJ6         1 TEMP              0 ****  ****    0 ROOT
