@<TRIPOS>MOLECULE
QJ7
   50    52     1     0     0
SMALL
abcg2


@<TRIPOS>ATOM
      1 F23         -7.4160     3.2520    -0.7280 f          1 QJ7      -0.181000
      2 C23         -7.2090     2.0360    -0.1920 ca         1 QJ7       0.171000
      3 C24         -8.2990     1.2230     0.0530 ca         1 QJ7      -0.152000
      4 C25         -8.0640    -0.0270     0.6090 ca         1 QJ7      -0.083000
      5 C26         -6.7720    -0.4380     0.9060 ca         1 QJ7      -0.126000
      6 C22         -5.9140     1.6510     0.0940 ca         1 QJ7      -0.149000
      7 C21         -5.6840     0.3960     0.6540 ca         1 QJ7      -0.053300
      8 C20         -4.2810    -0.0620     0.9330 c3         1 QJ7      -0.037100
      9 C19         -3.6660    -0.7410    -0.2870 c3         1 QJ7       0.157800
     10 N18         -2.3080    -1.1690    -0.0090 n7         1 QJ7      -0.858400
     11 C17         -1.6990    -1.8500    -1.1360 c3         1 QJ7       0.208100
     12 C15         -0.2840    -2.2370    -0.8160 ca         1 QJ7      -0.105300
     13 C14          0.6920    -1.2740    -0.6230 ca         1 QJ7      -0.090000
     14 C16          0.0870    -3.5720    -0.6730 ca         1 QJ7       0.299900
     15 N11          1.3170    -3.9550    -0.3680 nb         1 QJ7      -0.639000
     16 C12          2.2550    -3.0330    -0.1930 ca         1 QJ7       0.256900
     17 C13          1.9900    -1.6680    -0.3180 ca         1 QJ7       0.094100
     18 O09          2.9050    -0.6950    -0.1670 os         1 QJ7      -0.341100
     19 C08          4.2330    -1.0530     0.1390 c3         1 QJ7       0.109300
     20 C06          5.0970     0.1780     0.1750 ca         1 QJ7       0.389300
     21 N01          6.3470    -0.0730     0.5650 nb         1 QJ7      -0.761000
     22 C02          7.2110     0.9340     0.6120 ca         1 QJ7       0.604900
     23 N02          8.4680     0.6570     1.0610 nv         1 QJ7      -1.055900
     24 C03          6.8470     2.2470     0.2600 ca         1 QJ7      -0.227000
     25 C04          5.5540     2.4990    -0.1420 ca         1 QJ7      -0.001300
     26 C05          4.6470     1.4300    -0.1840 ca         1 QJ7      -0.190000
     27 C07          5.1100     3.8750    -0.5340 c3         1 QJ7      -0.054800
     28 H1          -9.3010     1.5580    -0.1780 ha         1 QJ7       0.132000
     29 H2          -8.9000    -0.6830     0.8140 ha         1 QJ7       0.117000
     30 H3          -6.6050    -1.4150     1.3440 ha         1 QJ7       0.116000
     31 H4          -5.0910     2.3250    -0.1120 ha         1 QJ7       0.132000
     32 H5          -3.6570     0.7860     1.2240 hc         1 QJ7       0.057700
     33 H6          -4.2850    -0.7610     1.7730 hc         1 QJ7       0.057700
     34 H7          -4.3160    -1.5690    -0.6090 h1         1 QJ7       0.034700
     35 H8          -3.6380    -0.0300    -1.1190 h1         1 QJ7       0.034700
     36 H9          -2.3220    -1.8040     0.7810 hn         1 QJ7       0.410000
     37 H11         -2.2580    -2.7420    -1.4540 h1         1 QJ7       0.040700
     38 H12         -1.7010    -1.1650    -1.9890 h1         1 QJ7       0.040700
     39 H13          0.4560    -0.2210    -0.7190 ha         1 QJ7       0.140000
     40 H14         -0.6490    -4.3570    -0.8110 h4         1 QJ7       0.018100
     41 H15          3.2440    -3.3990     0.0540 h4         1 QJ7       0.024100
     42 H16          4.2870    -1.5620     1.1090 h1         1 QJ7       0.057700
     43 H17          4.6370    -1.7430    -0.6120 h1         1 QJ7       0.057700
     44 H18          8.7430    -0.3110     1.0520 hn         1 QJ7       0.470500
     45 H19          9.2040     1.2970     0.8140 hn         1 QJ7       0.470500
     46 H20          7.5800     3.0430     0.3070 ha         1 QJ7       0.120000
     47 H21          3.6260     1.5960    -0.4980 ha         1 QJ7       0.138000
     48 H22          4.7590     3.8870    -1.5670 hc         1 QJ7       0.048033
     49 H23          4.2770     4.2050     0.0880 hc         1 QJ7       0.048033
     50 H24          5.9130     4.6030    -0.4410 hc         1 QJ7       0.048033
@<TRIPOS>BOND
     1     1     2 1   
     2     2     3 ar  
     3     2     6 ar  
     4     3     4 ar  
     5     3    28 1   
     6     4     5 ar  
     7     4    29 1   
     8     5     7 ar  
     9     5    30 1   
    10     6     7 ar  
    11     6    31 1   
    12     7     8 1   
    13     8     9 1   
    14     8    32 1   
    15     8    33 1   
    16     9    10 1   
    17     9    34 1   
    18     9    35 1   
    19    10    11 1   
    20    10    36 1   
    21    11    12 1   
    22    11    37 1   
    23    11    38 1   
    24    12    13 ar  
    25    12    14 ar  
    26    13    17 ar  
    27    13    39 1   
    28    14    15 ar  
    29    14    40 1   
    30    15    16 ar  
    31    16    17 ar  
    32    16    41 1   
    33    17    18 1   
    34    18    19 1   
    35    19    20 1   
    36    19    42 1   
    37    19    43 1   
    38    20    21 ar  
    39    20    26 ar  
    40    21    22 ar  
    41    22    23 1   
    42    22    24 ar  
    43    23    44 1   
    44    23    45 1   
    45    24    25 ar  
    46    24    46 1   
    47    25    26 ar  
    48    25    27 1   
    49    26    47 1   
    50    27    48 1   
    51    27    49 1   
    52    27    50 1   
@<TRIPOS>SUBSTRUCTURE
     1 QJ7         1 TEMP              0 ****  ****    0 ROOT
