@<TRIPOS>MOLECULE
QJ7
   50    52     1     0     0
SMALL
No Charge or Current Charge


@<TRIPOS>ATOM
      1 F23         -7.5690     3.3370    -0.1080 f          1 QJ7      -0.181000
      2 C23         -7.2930     2.0930     0.3400 ca         1 QJ7       0.171000
      3 C24         -8.3410     1.2350     0.7060 ca         1 QJ7      -0.152000
      4 C25         -8.0530    -0.0610     1.1700 ca         1 QJ7      -0.083000
      5 C26         -6.7170    -0.4900     1.2650 ca         1 QJ7      -0.126000
      6 C22         -5.9580     1.6660     0.4340 ca         1 QJ7      -0.149000
      7 C21         -5.6620     0.3700     0.9000 ca         1 QJ7      -0.053300
      8 C20         -4.2170    -0.1000     0.9990 c3         1 QJ7      -0.037100
      9 C19         -3.7420    -0.7820    -0.2990 c3         1 QJ7       0.157800
     10 N18         -2.3380    -1.2160    -0.1730 n7         1 QJ7      -0.858400
     11 C17         -1.7680    -1.8520    -1.3740 c3         1 QJ7       0.208100
     12 C15         -0.3210    -2.2500    -1.1360 ca         1 QJ7      -0.105300
     13 C14          0.6610    -1.2780    -0.8590 ca         1 QJ7      -0.090000
     14 C16          0.0680    -3.6030    -1.2040 ca         1 QJ7       0.299900
     15 N11          1.3430    -4.0200    -1.0110 nb         1 QJ7      -0.639000
     16 C12          2.2800    -3.0770    -0.7420 ca         1 QJ7       0.256900
     17 C13          1.9870    -1.6910    -0.6560 ca         1 QJ7       0.094100
     18 O09          2.9420    -0.7290    -0.3840 os         1 QJ7      -0.341100
     19 C08          4.3300    -1.0720    -0.1690 c3         1 QJ7       0.109300
     20 C06          5.1470     0.1950     0.0960 ca         1 QJ7       0.389300
     21 N01          5.8250     0.2630     1.2690 nb         1 QJ7      -0.761000
     22 C02          6.5310     1.3610     1.4920 ca         1 QJ7       0.604900
     23 N02          7.1490     1.3010     2.6720 nv         1 QJ7      -1.055900
     24 C03          6.6400     2.4410     0.6140 ca         1 QJ7      -0.227000
     25 C04          5.9510     2.3820    -0.6060 ca         1 QJ7      -0.001300
     26 C05          5.1890     1.2300    -0.8610 ca         1 QJ7      -0.190000
     27 C07          6.0180     3.5220    -1.6090 c3         1 QJ7      -0.054800
     28 H1          -9.3710     1.5730     0.6290 ha         1 QJ7       0.132000
     29 H2          -8.8620    -0.7300     1.4540 ha         1 QJ7       0.117000
     30 H3          -6.5020    -1.4950     1.6230 ha         1 QJ7       0.116000
     31 H4          -5.1580     2.3420     0.1440 ha         1 QJ7       0.132000
     32 H5          -3.5590     0.7490     1.2190 hc         1 QJ7       0.057700
     33 H6          -4.1060    -0.8000     1.8360 hc         1 QJ7       0.057700
     34 H7          -4.3920    -1.6420    -0.5100 h1         1 QJ7       0.034700
     35 H8          -3.8480    -0.0720    -1.1310 h1         1 QJ7       0.034700
     36 H9          -2.2760    -1.8890     0.6010 hn         1 QJ7       0.410000
     37 H11         -2.3520    -2.7420    -1.6480 h1         1 QJ7       0.040700
     38 H12         -1.8070    -1.1610    -2.2270 h1         1 QJ7       0.040700
     39 H13          0.3980    -0.2240    -0.8000 ha         1 QJ7       0.140000
     40 H14         -0.6620    -4.3820    -1.4200 h4         1 QJ7       0.018100
     41 H15          3.2910    -3.4540    -0.5940 h4         1 QJ7       0.024100
     42 H16          4.4270    -1.7550     0.6850 h1         1 QJ7       0.057700
     43 H17          4.7430    -1.5730    -1.0530 h1         1 QJ7       0.057700
     44 H18          7.1740     0.3780     3.0870 hn         1 QJ7       0.470500
     45 H19          7.9700     1.8800     2.8030 hn         1 QJ7       0.470500
     46 H20          7.2440     3.3050     0.8750 ha         1 QJ7       0.120000
     47 H21          4.6300     1.1300    -1.7880 ha         1 QJ7       0.138000
     48 H22          5.9530     3.1500    -2.6380 hc         1 QJ7       0.048033
     49 H23          5.1930     4.2270    -1.4540 hc         1 QJ7       0.048033
     50 H24          6.9580     4.0790    -1.5180 hc         1 QJ7       0.048033
@<TRIPOS>BOND
     1     1     2 1   
     2     2     3 ar  
     3     2     6 ar  
     4     3     4 ar  
     5     3    28 1   
     6     4     5 ar  
     7     4    29 1   
     8     5     7 ar  
     9     5    30 1   
    10     6     7 ar  
    11     6    31 1   
    12     7     8 1   
    13     8     9 1   
    14     8    32 1   
    15     8    33 1   
    16     9    10 1   
    17     9    34 1   
    18     9    35 1   
    19    10    11 1   
    20    10    36 1   
    21    11    12 1   
    22    11    37 1   
    23    11    38 1   
    24    12    13 ar  
    25    12    14 ar  
    26    13    17 ar  
    27    13    39 1   
    28    14    15 ar  
    29    14    40 1   
    30    15    16 ar  
    31    16    17 ar  
    32    16    41 1   
    33    17    18 1   
    34    18    19 1   
    35    19    20 1   
    36    19    42 1   
    37    19    43 1   
    38    20    21 ar  
    39    20    26 ar  
    40    21    22 ar  
    41    22    23 1   
    42    22    24 ar  
    43    23    44 1   
    44    23    45 1   
    45    24    25 ar  
    46    24    46 1   
    47    25    26 ar  
    48    25    27 1   
    49    26    47 1   
    50    27    48 1   
    51    27    49 1   
    52    27    50 1   
@<TRIPOS>SUBSTRUCTURE
     1 QJ7         1 TEMP              0 ****  ****    0 ROOT
