@<TRIPOS>MOLECULE
QJ8
   53    55     1     0     0
SMALL
abcg2


@<TRIPOS>ATOM
      1 N22         -8.3670     0.1140     1.8590 nv         1 QJ8      -1.054900
      2 C22         -7.4230    -0.0870     0.8930 ca         1 QJ8       0.599900
      3 C23         -7.7920    -0.5380    -0.3880 ca         1 QJ8      -0.229000
      4 C24         -6.8190    -0.6830    -1.3520 ca         1 QJ8      -0.004300
      5 C27         -7.1570    -1.1540    -2.7330 c3         1 QJ8      -0.053800
      6 C25         -5.4940    -0.3720    -1.0160 ca         1 QJ8      -0.190000
      7 N21         -6.1660     0.1990     1.2050 nb         1 QJ8      -0.760000
      8 C26         -5.2270     0.0600     0.2670 ca         1 QJ8       0.391300
      9 C12         -3.8440     0.4220     0.7330 c3         1 QJ8       0.107300
     10 O11         -2.9080     0.2110    -0.2860 os         1 QJ8      -0.458000
     11 C4          -1.6150     0.6580     0.0330 c5         1 QJ8       0.167300
     12 C5          -0.8970    -0.1560     1.1130 c5         1 QJ8       0.116800
     13 N1           0.4890     0.1450     0.8190 n7         1 QJ8      -0.859400
     14 C3          -0.6900     0.5220    -1.1840 c5         1 QJ8      -0.077400
     15 C2           0.6350    -0.0230    -0.6220 c5         1 QJ8       0.166500
     16 C10          1.8380     0.7200    -1.1540 c3         1 QJ8       0.172600
     17 O09          2.9990     0.1910    -0.5620 os         1 QJ8      -0.463000
     18 C08          4.1730     0.7880    -1.0290 c3         1 QJ8       0.108300
     19 C06          5.3750     0.2530    -0.2990 ca         1 QJ8       0.394300
     20 N01          6.5390     0.6790    -0.7910 nb         1 QJ8      -0.760000
     21 C02          7.6610     0.2790    -0.2050 ca         1 QJ8       0.601900
     22 N02          8.8360     0.6900    -0.7630 nv         1 QJ8      -1.056900
     23 C03          7.6570    -0.5710     0.9160 ca         1 QJ8      -0.231000
     24 C04          6.4510    -1.0080     1.4220 ca         1 QJ8      -0.004300
     25 C05          5.2720    -0.5850     0.7930 ca         1 QJ8      -0.191000
     26 C07          6.3890    -1.9160     2.6120 c3         1 QJ8      -0.053800
     27 H1          -9.2400    -0.3780     1.7640 hn         1 QJ8       0.467000
     28 H2          -8.0270     0.1630     2.8050 hn         1 QJ8       0.467000
     29 H3          -8.8290    -0.7650    -0.6070 ha         1 QJ8       0.118000
     30 H4          -6.9010    -0.3940    -3.4730 hc         1 QJ8       0.046367
     31 H5          -6.5900    -2.0500    -2.9900 hc         1 QJ8       0.046367
     32 H6          -8.2160    -1.3820    -2.8350 hc         1 QJ8       0.046367
     33 H7          -4.7060    -0.4740    -1.7490 ha         1 QJ8       0.138000
     34 H8          -3.8450     1.4730     1.0570 h1         1 QJ8       0.044700
     35 H9          -3.6110    -0.1730     1.6270 h1         1 QJ8       0.044700
     36 H10         -1.6560     1.7070     0.3550 h1         1 QJ8       0.049700
     37 H11         -1.1570     0.1410     2.1300 h1         1 QJ8       0.044200
     38 H12         -1.1570    -1.2200     0.9920 h1         1 QJ8       0.044200
     39 H13          1.1250    -0.4460     1.3360 hn         1 QJ8       0.429000
     40 H15         -1.1190    -0.1700    -1.9100 hc         1 QJ8       0.059200
     41 H16         -0.5570     1.4810    -1.6890 hc         1 QJ8       0.059200
     42 H17          0.7310    -1.0840    -0.8990 h1         1 QJ8       0.037700
     43 H18          1.8810     0.6240    -2.2490 h1         1 QJ8       0.030700
     44 H19          1.7380     1.7910    -0.9250 h1         1 QJ8       0.030700
     45 H20          4.3040     0.6170    -2.1070 h1         1 QJ8       0.042700
     46 H21          4.1420     1.8800    -0.8950 h1         1 QJ8       0.042700
     47 H22          8.7860     1.4980    -1.3610 hn         1 QJ8       0.468000
     48 H23          9.6620     0.6530    -0.1900 hn         1 QJ8       0.468000
     49 H24          8.5920    -0.8710     1.3730 ha         1 QJ8       0.118000
     50 H25          4.3080    -0.9030     1.1660 ha         1 QJ8       0.136000
     51 H26          5.7600    -1.4900     3.3940 hc         1 QJ8       0.046367
     52 H27          5.9510    -2.8780     2.3390 hc         1 QJ8       0.046367
     53 H28          7.3770    -2.1000     3.0320 hc         1 QJ8       0.046367
@<TRIPOS>BOND
     1     1     2 1   
     2     1    27 1   
     3     1    28 1   
     4     2     3 ar  
     5     2     7 ar  
     6     3     4 ar  
     7     3    29 1   
     8     4     5 1   
     9     4     6 ar  
    10     5    30 1   
    11     5    31 1   
    12     5    32 1   
    13     6     8 ar  
    14     6    33 1   
    15     7     8 ar  
    16     8     9 1   
    17     9    10 1   
    18     9    34 1   
    19     9    35 1   
    20    10    11 1   
    21    11    12 1   
    22    11    14 1   
    23    11    36 1   
    24    12    13 1   
    25    12    37 1   
    26    12    38 1   
    27    13    15 1   
    28    13    39 1   
    29    14    15 1   
    30    14    40 1   
    31    14    41 1   
    32    15    16 1   
    33    15    42 1   
    34    16    17 1   
    35    16    43 1   
    36    16    44 1   
    37    17    18 1   
    38    18    19 1   
    39    18    45 1   
    40    18    46 1   
    41    19    20 ar  
    42    19    25 ar  
    43    20    21 ar  
    44    21    22 1   
    45    21    23 ar  
    46    22    47 1   
    47    22    48 1   
    48    23    24 ar  
    49    23    49 1   
    50    24    25 ar  
    51    24    26 1   
    52    25    50 1   
    53    26    51 1   
    54    26    52 1   
    55    26    53 1   
@<TRIPOS>SUBSTRUCTURE
     1 QJ8         1 TEMP              0 ****  ****    0 ROOT
