@<TRIPOS>MOLECULE
QJ8
   53    55     1     0     0
SMALL
No Charge or Current Charge


@<TRIPOS>ATOM
      1 N22         -8.1360    -0.3270    -0.5360 nv         1 QJ8      -1.054900
      2 C22         -6.8460    -0.6690    -0.5400 ca         1 QJ8       0.599900
      3 C23         -6.3380    -1.7580    -1.2530 ca         1 QJ8      -0.229000
      4 C24         -4.9640    -2.0270    -1.1700 ca         1 QJ8      -0.004300
      5 C27         -4.3390    -3.1900    -1.9210 c3         1 QJ8      -0.053800
      6 C25         -4.1870    -1.1730    -0.3690 ca         1 QJ8      -0.190000
      7 N21         -6.1340     0.1440     0.2240 nb         1 QJ8      -0.760000
      8 C26         -4.8020    -0.1000     0.3080 ca         1 QJ8       0.391300
      9 C12         -3.9700     0.8350     1.1960 c3         1 QJ8       0.107300
     10 O11         -2.8550     1.3790     0.4500 os         1 QJ8      -0.458000
     11 C4          -1.9590     2.2800     1.1520 c5         1 QJ8       0.167300
     12 C5          -1.0850     1.4640     2.1760 c5         1 QJ8       0.116800
     13 N1           0.3200     1.6180     1.7160 n7         1 QJ8      -0.859400
     14 C3          -0.9170     2.7920     0.1160 c5         1 QJ8      -0.077400
     15 C2           0.1990     1.7270     0.2430 c5         1 QJ8       0.166500
     16 C10          1.5280     2.0990    -0.4760 c3         1 QJ8       0.172600
     17 O09          2.4740     1.0260    -0.2870 os         1 QJ8      -0.463000
     18 C08          3.7630     1.2490    -0.8990 c3         1 QJ8       0.108300
     19 C06          4.7000     0.0640    -0.6300 ca         1 QJ8       0.394300
     20 N01          5.2540    -0.5490    -1.7070 nb         1 QJ8      -0.760000
     21 C02          6.0660    -1.5670    -1.4670 ca         1 QJ8       0.601900
     22 N02          6.5470    -2.0750    -2.6030 nv         1 QJ8      -1.056900
     23 C03          6.4030    -2.0490    -0.2010 ca         1 QJ8      -0.231000
     24 C04          5.8410    -1.4240     0.9220 ca         1 QJ8      -0.004300
     25 C05          4.9740    -0.3430     0.6920 ca         1 QJ8      -0.191000
     26 C07          6.1620    -1.8920     2.3320 c3         1 QJ8      -0.053800
     27 H1          -8.8090    -1.0420    -0.7850 hn         1 QJ8       0.467000
     28 H2          -8.4070     0.3220     0.1920 hn         1 QJ8       0.467000
     29 H3          -6.9940    -2.3770    -1.8570 ha         1 QJ8       0.118000
     30 H4          -3.9820    -2.8710    -2.9070 hc         1 QJ8       0.046367
     31 H5          -3.4850    -3.6050    -1.3720 hc         1 QJ8       0.046367
     32 H6          -5.0600    -4.0020    -2.0710 hc         1 QJ8       0.046367
     33 H7          -3.1160    -1.3290    -0.2700 ha         1 QJ8       0.138000
     34 H8          -4.6060     1.6470     1.5720 h1         1 QJ8       0.044700
     35 H9          -3.6180     0.2620     2.0630 h1         1 QJ8       0.044700
     36 H10         -2.5320     3.0960     1.6140 h1         1 QJ8       0.049700
     37 H11         -1.2070     1.8320     3.2040 h1         1 QJ8       0.044200
     38 H12         -1.3640     0.4010     2.1700 h1         1 QJ8       0.044200
     39 H13          0.8840     0.7930     1.9630 hn         1 QJ8       0.429000
     40 H15         -1.3230     2.8590    -0.9000 hc         1 QJ8       0.059200
     41 H16         -0.5510     3.7880     0.3880 hc         1 QJ8       0.059200
     42 H17         -0.1490     0.7710    -0.1770 h1         1 QJ8       0.037700
     43 H18          1.3260     2.2500    -1.5450 h1         1 QJ8       0.030700
     44 H19          1.9160     3.0390    -0.0620 h1         1 QJ8       0.030700
     45 H20          3.6510     1.3910    -1.9820 h1         1 QJ8       0.042700
     46 H21          4.2270     2.1570    -0.4920 h1         1 QJ8       0.042700
     47 H22          6.4130    -1.4880    -3.4170 hn         1 QJ8       0.468000
     48 H23          7.4150    -2.5950    -2.5550 hn         1 QJ8       0.468000
     49 H24          7.0830    -2.8880    -0.0930 ha         1 QJ8       0.118000
     50 H25          4.5110     0.1820     1.5230 ha         1 QJ8       0.136000
     51 H26          5.3100    -1.7410     3.0060 hc         1 QJ8       0.046367
     52 H27          6.4130    -2.9590     2.3510 hc         1 QJ8       0.046367
     53 H28          7.0160    -1.3390     2.7410 hc         1 QJ8       0.046367
@<TRIPOS>BOND
     1     1     2 1   
     2     1    27 1   
     3     1    28 1   
     4     2     3 ar  
     5     2     7 ar  
     6     3     4 ar  
     7     3    29 1   
     8     4     5 1   
     9     4     6 ar  
    10     5    30 1   
    11     5    31 1   
    12     5    32 1   
    13     6     8 ar  
    14     6    33 1   
    15     7     8 ar  
    16     8     9 1   
    17     9    10 1   
    18     9    34 1   
    19     9    35 1   
    20    10    11 1   
    21    11    12 1   
    22    11    14 1   
    23    11    36 1   
    24    12    13 1   
    25    12    37 1   
    26    12    38 1   
    27    13    15 1   
    28    13    39 1   
    29    14    15 1   
    30    14    40 1   
    31    14    41 1   
    32    15    16 1   
    33    15    42 1   
    34    16    17 1   
    35    16    43 1   
    36    16    44 1   
    37    17    18 1   
    38    18    19 1   
    39    18    45 1   
    40    18    46 1   
    41    19    20 ar  
    42    19    25 ar  
    43    20    21 ar  
    44    21    22 1   
    45    21    23 ar  
    46    22    47 1   
    47    22    48 1   
    48    23    24 ar  
    49    23    49 1   
    50    24    25 ar  
    51    24    26 1   
    52    25    50 1   
    53    26    51 1   
    54    26    52 1   
    55    26    53 1   
@<TRIPOS>SUBSTRUCTURE
     1 QJ8         1 TEMP              0 ****  ****    0 ROOT
