@<TRIPOS>MOLECULE
QJ9
   58    63     1     0     0
SMALL
No Charge or Current Charge


@<TRIPOS>ATOM
      1 N1         -12.1460   -22.6560   -39.6690 nb         1 QJ9      -0.248000
      2 N3         -10.0820   -22.0960   -38.6430 nh         1 QJ9      -0.764300
      3 C4         -10.9260   -22.0920   -39.7920 ca         1 QJ9       0.384900
      4 C5         -14.2820   -23.2700   -40.6390 cc         1 QJ9      -0.058700
      5 C6         -14.8050   -23.8510   -39.4990 cd         1 QJ9      -0.164200
      6 C7         -16.2840   -23.9630   -41.1610 ca         1 QJ9       0.073100
      7 C8         -16.1150   -24.3050   -39.8400 ca         1 QJ9      -0.123800
      8 C10        -18.3110   -25.2720   -39.7570 ca         1 QJ9      -0.134000
      9 C13         -8.7940   -21.3140   -38.6160 c6         1 QJ9       0.208800
     10 C15         -8.2800   -22.2400   -36.2740 c6         1 QJ9      -0.091400
     11 C17        -10.6250   -22.4110   -37.2780 c6         1 QJ9       0.216800
     12 C20         -4.8760   -19.7130   -36.9520 ca         1 QJ9       0.006600
     13 C21         -4.3610   -18.4590   -36.5990 ca         1 QJ9      -0.110000
     14 C22         -5.2530   -17.4900   -36.0970 ca         1 QJ9      -0.110000
     15 C24         -7.1530   -18.9830   -36.5180 ca         1 QJ9      -0.111000
     16 C26         -2.1930   -21.4190   -36.4900 c3         1 QJ9      -0.116100
     17 N5          -4.2700   -20.7400   -37.7250 n          1 QJ9      -0.298000
     18 C18         -5.2340   -21.6630   -38.1470 c          1 QJ9       0.592000
     19 O2          -5.0440   -22.6980   -38.7710 o          1 QJ9      -0.567000
     20 C23         -6.6420   -17.7510   -36.0570 ca         1 QJ9      -0.113000
     21 C19         -6.2420   -19.9760   -36.9150 ca         1 QJ9       0.010600
     22 N4          -6.4590   -21.1770   -37.6640 n          1 QJ9      -0.297000
     23 C14         -7.7230   -21.9570   -37.6900 c6         1 QJ9       0.097700
     24 C16         -9.5630   -23.0920   -36.3810 c6         1 QJ9      -0.104400
     25 N2         -10.4370   -21.5330   -40.9210 nb         1 QJ9      -0.230000
     26 C1         -11.2340   -21.5370   -42.0040 ca         1 QJ9       0.147900
     27 C2         -12.5170   -22.0990   -41.9650 ca         1 QJ9      -0.251000
     28 C3         -12.9510   -22.6630   -40.7530 ca         1 QJ9       0.238800
     29 C9         -17.1020   -24.9610   -39.0970 ca         1 QJ9      -0.054000
     30 C11        -18.4970   -24.9240   -41.1180 ca         1 QJ9      -0.085000
     31 C12        -17.4750   -24.2620   -41.8350 ca         1 QJ9      -0.107000
     32 O1         -15.1840   -23.3230   -41.7010 os         1 QJ9      -0.181200
     33 H6         -14.3110   -23.9430   -38.5340 ha         1 QJ9       0.224000
     34 H10        -19.1050   -25.7820   -39.2160 ha         1 QJ9       0.116000
     35 H13         -8.3440   -21.2470   -39.6170 h1         1 QJ9       0.076200
     36 H13A        -8.9950   -20.2840   -38.2920 h1         1 QJ9       0.076200
     37 H15         -7.5270   -22.7700   -35.6740 hc         1 QJ9       0.052200
     38 H15A        -8.5050   -21.3060   -35.7440 hc         1 QJ9       0.052200
     39 H17        -10.9720   -21.4870   -36.7920 h1         1 QJ9       0.067200
     40 H17A       -11.4900   -23.0890   -37.3270 h1         1 QJ9       0.067200
     41 H21         -3.3040   -18.2330   -36.7160 ha         1 QJ9       0.122000
     42 H22         -4.8770   -16.5170   -35.7860 ha         1 QJ9       0.116000
     43 H24         -8.2260   -19.1420   -36.5630 ha         1 QJ9       0.121000
     44 H26         -1.1160   -21.5850   -36.6120 hc         1 QJ9       0.046367
     45 H26A        -2.3380   -20.6570   -35.7160 hc         1 QJ9       0.046367
     46 H26B        -2.6500   -22.3550   -36.1460 hc         1 QJ9       0.046367
     47 H25         -2.3380   -20.0420   -38.1540 h1         1 QJ9       0.062700
     48 H25A        -2.6220   -21.7330   -38.5880 h1         1 QJ9       0.062700
     49 H23         -7.3260   -16.9780   -35.7140 ha         1 QJ9       0.115000
     50 H14         -7.4950   -22.9360   -38.1340 h1         1 QJ9       0.096700
     51 H16         -9.3200   -24.0810   -36.7910 hc         1 QJ9       0.056200
     52 H16A        -9.9820   -23.2640   -35.3800 hc         1 QJ9       0.056200
     53 H1         -10.8380   -21.0850   -42.9120 h4         1 QJ9       0.025100
     54 H2         -13.1510   -22.0960   -42.8470 ha         1 QJ9       0.148000
     55 H9         -16.9450   -25.2220   -38.0520 ha         1 QJ9       0.121000
     56 H11        -19.4330   -25.1690   -41.6160 ha         1 QJ9       0.117000
     57 H12        -17.6060   -23.9900   -42.8790 ha         1 QJ9       0.132000
     58 C25         -2.8190   -20.9710   -37.8230 c3         1 QJ9       0.122000
@<TRIPOS>BOND
     1     1     3 ar  
     2     1    28 ar  
     3     2     3 1   
     4     2     9 1   
     5     2    11 1   
     6     3    25 ar  
     7     4     5 2   
     8     4    28 1   
     9     4    32 1   
    10     5     7 1   
    11     5    33 1   
    12     6     7 ar  
    13     6    31 ar  
    14     6    32 1   
    15     7    29 ar  
    16     8    29 ar  
    17     8    30 ar  
    18     8    34 1   
    19     9    23 1   
    20     9    35 1   
    21     9    36 1   
    22    10    23 1   
    23    10    24 1   
    24    10    37 1   
    25    10    38 1   
    26    11    24 1   
    27    11    39 1   
    28    11    40 1   
    29    12    13 ar  
    30    12    17 1   
    31    12    21 ar  
    32    13    14 ar  
    33    13    41 1   
    34    14    20 ar  
    35    14    42 1   
    36    15    20 ar  
    37    15    21 ar  
    38    15    43 1   
    39    16    44 1   
    40    16    45 1   
    41    16    46 1   
    42    16    58 1   
    43    17    18 1   
    44    17    58 1   
    45    18    19 2   
    46    18    22 1   
    47    20    49 1   
    48    21    22 1   
    49    22    23 1   
    50    23    50 1   
    51    24    51 1   
    52    24    52 1   
    53    25    26 ar  
    54    26    27 ar  
    55    26    53 1   
    56    27    28 ar  
    57    27    54 1   
    58    29    55 1   
    59    30    31 ar  
    60    30    56 1   
    61    31    57 1   
    62    47    58 1   
    63    48    58 1   
@<TRIPOS>SUBSTRUCTURE
     1 QJ9         1 TEMP              0 ****  ****    0 ROOT
