@<TRIPOS>MOLECULE
QJ9
   58    63     1     0     0
SMALL
abcg2


@<TRIPOS>ATOM
      1 N1         -12.1780   -22.1030   -39.3700 nb         1 QJ9      -0.248000
      2 N3         -10.5300   -20.8760   -38.3040 nh         1 QJ9      -0.764300
      3 C4         -11.0270   -21.4190   -39.4520 ca         1 QJ9       0.384900
      4 C5         -13.9310   -23.3400   -40.3700 cc         1 QJ9      -0.058700
      5 C6         -14.6860   -23.6570   -39.2830 cd         1 QJ9      -0.164200
      6 C7         -15.6270   -24.5040   -41.1580 ca         1 QJ9       0.073100
      7 C8         -15.8010   -24.4190   -39.7660 ca         1 QJ9      -0.123800
      8 C10        -17.8020   -25.7050   -40.0110 ca         1 QJ9      -0.134000
      9 C13         -9.1710   -20.3580   -38.2360 c6         1 QJ9       0.208800
     10 C15         -8.7620   -21.8930   -36.2570 c6         1 QJ9      -0.091400
     11 C17        -11.0760   -21.2300   -36.9950 c6         1 QJ9       0.216800
     12 C20         -4.9450   -19.8920   -37.1380 ca         1 QJ9       0.006600
     13 C21         -4.0990   -18.9490   -36.5810 ca         1 QJ9      -0.110000
     14 C22         -4.6620   -17.9990   -35.7270 ca         1 QJ9      -0.110000
     15 C24         -6.8810   -18.9590   -36.0110 ca         1 QJ9      -0.111000
     16 C26         -2.5890   -22.1660   -37.5700 c3         1 QJ9      -0.116100
     17 N5          -4.6930   -20.9350   -38.0160 n          1 QJ9      -0.298000
     18 C18         -5.8630   -21.6150   -38.2860 c          1 QJ9       0.592000
     19 O2          -5.9910   -22.5960   -39.0120 o          1 QJ9      -0.567000
     20 C23         -6.0280   -18.0060   -35.4490 ca         1 QJ9      -0.113000
     21 C19         -6.3250   -19.9060   -36.8590 ca         1 QJ9       0.010600
     22 N4          -6.8680   -20.9700   -37.5760 n          1 QJ9      -0.297000
     23 C14         -8.2510   -21.4250   -37.6220 c6         1 QJ9       0.097700
     24 C16        -10.2270   -22.3250   -36.3490 c6         1 QJ9      -0.104400
     25 N2         -10.3370   -21.2110   -40.5970 nb         1 QJ9      -0.230000
     26 C1         -10.8690   -21.7100   -41.7070 ca         1 QJ9       0.147900
     27 C2         -12.0600   -22.4200   -41.7340 ca         1 QJ9      -0.251000
     28 C3         -12.6890   -22.5970   -40.5010 ca         1 QJ9       0.238800
     29 C9         -16.9150   -25.0350   -39.1830 ca         1 QJ9      -0.054000
     30 C11        -17.6000   -25.7690   -41.4000 ca         1 QJ9      -0.085000
     31 C12        -16.5020   -25.1660   -42.0020 ca         1 QJ9      -0.107000
     32 O1         -14.4880   -23.8480   -41.5280 os         1 QJ9      -0.181200
     33 H6         -14.4670   -23.3810   -38.2660 ha         1 QJ9       0.224000
     34 H10        -18.6710   -26.1890   -39.5830 ha         1 QJ9       0.116000
     35 H13         -8.8280   -20.0910   -39.2290 h1         1 QJ9       0.076200
     36 H13A        -9.1820   -19.4590   -37.6170 h1         1 QJ9       0.076200
     37 H15         -8.1370   -22.7150   -35.9020 hc         1 QJ9       0.052200
     38 H15A        -8.6720   -21.0800   -35.5320 hc         1 QJ9       0.052200
     39 H17        -11.0570   -20.3280   -36.3760 h1         1 QJ9       0.067200
     40 H17A       -12.1060   -21.5450   -37.1140 h1         1 QJ9       0.067200
     41 H21         -3.0390   -18.9500   -36.7970 ha         1 QJ9       0.122000
     42 H22         -4.0270   -17.2490   -35.2750 ha         1 QJ9       0.116000
     43 H24         -7.9360   -18.9450   -35.7840 ha         1 QJ9       0.121000
     44 H26         -1.6260   -22.4280   -38.0120 hc         1 QJ9       0.046367
     45 H26A        -2.4020   -21.6230   -36.6420 hc         1 QJ9       0.046367
     46 H26B        -3.1220   -23.0880   -37.3300 hc         1 QJ9       0.046367
     47 H25         -2.8570   -20.4070   -38.8070 h1         1 QJ9       0.062700
     48 H25A        -3.5820   -21.8700   -39.4680 h1         1 QJ9       0.062700
     49 H23         -6.4430   -17.2590   -34.7840 ha         1 QJ9       0.115000
     50 H14         -8.2410   -22.2770   -38.3030 h1         1 QJ9       0.096700
     51 H16        -10.3110   -23.2360   -36.9490 hc         1 QJ9       0.056200
     52 H16A       -10.6150   -22.5500   -35.3530 hc         1 QJ9       0.056200
     53 H1         -10.3140   -21.5390   -42.6240 h4         1 QJ9       0.025100
     54 H2         -12.4650   -22.8190   -42.6510 ha         1 QJ9       0.148000
     55 H9         -17.0770   -24.9900   -38.1130 ha         1 QJ9       0.121000
     56 H11        -18.3150   -26.3000   -42.0150 ha         1 QJ9       0.117000
     57 H12        -16.3370   -25.2100   -43.0700 ha         1 QJ9       0.132000
     58 C25         -3.3950   -21.3200   -38.5470 c3         1 QJ9       0.122000
@<TRIPOS>BOND
     1     1     3 ar  
     2     1    28 ar  
     3     2     3 1   
     4     2     9 1   
     5     2    11 1   
     6     3    25 ar  
     7     4     5 2   
     8     4    28 1   
     9     4    32 1   
    10     5     7 1   
    11     5    33 1   
    12     6     7 ar  
    13     6    31 ar  
    14     6    32 1   
    15     7    29 ar  
    16     8    29 ar  
    17     8    30 ar  
    18     8    34 1   
    19     9    23 1   
    20     9    35 1   
    21     9    36 1   
    22    10    23 1   
    23    10    24 1   
    24    10    37 1   
    25    10    38 1   
    26    11    24 1   
    27    11    39 1   
    28    11    40 1   
    29    12    13 ar  
    30    12    17 1   
    31    12    21 ar  
    32    13    14 ar  
    33    13    41 1   
    34    14    20 ar  
    35    14    42 1   
    36    15    20 ar  
    37    15    21 ar  
    38    15    43 1   
    39    16    44 1   
    40    16    45 1   
    41    16    46 1   
    42    16    58 1   
    43    17    18 1   
    44    17    58 1   
    45    18    19 2   
    46    18    22 1   
    47    20    49 1   
    48    21    22 1   
    49    22    23 1   
    50    23    50 1   
    51    24    51 1   
    52    24    52 1   
    53    25    26 ar  
    54    26    27 ar  
    55    26    53 1   
    56    27    28 ar  
    57    27    54 1   
    58    29    55 1   
    59    30    31 ar  
    60    30    56 1   
    61    31    57 1   
    62    47    58 1   
    63    48    58 1   
@<TRIPOS>SUBSTRUCTURE
     1 QJ9         1 TEMP              0 ****  ****    0 ROOT
