@<TRIPOS>MOLECULE
QJA
   28    29     1     0     0
SMALL
abcg2


@<TRIPOS>ATOM
      1 C01          4.2520    -0.4090     1.1120 c3         1 QJA      -0.177100
      2 C02          3.2880    -0.9310     0.0790 c          1 QJA       0.614100
      3 C04          2.5280     1.3490    -0.1210 c2         1 QJA      -0.062400
      4 C05          1.5060     2.0530     0.3560 c2         1 QJA      -0.123400
      5 C07         -0.6960     0.5380    -0.6890 c3         1 QJA       0.159600
      6 C08         -2.1270     0.2350    -0.3960 cc         1 QJA      -0.215300
      7 C09         -3.2330     0.7740    -0.9840 cd         1 QJA      -0.115000
      8 C10         -4.4490     0.2590    -0.4580 cd         1 QJA      -0.134000
      9 C11         -4.2450    -0.6590     0.5250 cc         1 QJA      -0.240000
     10 C13          0.1090    -0.7050    -1.0410 c3         1 QJA      -0.094400
     11 C14          1.5200    -0.4130    -1.5250 c3         1 QJA       0.100000
     12 N03          2.4510    -0.0080    -0.4820 n          1 QJA      -0.355000
     13 O15          3.2480    -2.1080    -0.2360 o          1 QJA      -0.588100
     14 S06         -0.0820     1.4400     0.7920 ss         1 QJA      -0.338600
     15 S12         -2.5740    -0.9080     0.8170 ss         1 QJA       0.229000
     16 H1           3.7390     0.1270     1.9110 hc         1 QJA       0.064033
     17 H2           4.8050    -1.2390     1.5440 hc         1 QJA       0.064033
     18 H3           4.9670     0.2840     0.6650 hc         1 QJA       0.064033
     19 H4           3.4800     1.8470    -0.2770 h4         1 QJA       0.187000
     20 H5           1.6610     3.1020     0.5730 h4         1 QJA       0.204000
     21 H6          -0.6690     1.2390    -1.5270 h1         1 QJA       0.075700
     22 H7          -3.1760     1.5170    -1.7670 ha         1 QJA       0.133000
     23 H8          -5.4300     0.5580    -0.7990 ha         1 QJA       0.135000
     24 H9          -4.9830    -1.2050     1.0920 h4         1 QJA       0.151000
     25 H10          0.1400    -1.3990    -0.1970 hc         1 QJA       0.068200
     26 H11         -0.4180    -1.2140    -1.8520 hc         1 QJA       0.068200
     27 H12          1.9220    -1.3050    -2.0010 h1         1 QJA       0.062700
     28 H13          1.5000     0.3710    -2.2840 h1         1 QJA       0.062700
@<TRIPOS>BOND
     1     1     2 1   
     2     1    16 1   
     3     1    17 1   
     4     1    18 1   
     5     2    12 1   
     6     2    13 2   
     7     3     4 2   
     8     3    12 1   
     9     3    19 1   
    10     4    14 1   
    11     4    20 1   
    12     5     6 1   
    13     5    10 1   
    14     5    14 1   
    15     5    21 1   
    16     6     7 2   
    17     6    15 1   
    18     7     8 1   
    19     7    22 1   
    20     8     9 2   
    21     8    23 1   
    22     9    15 1   
    23     9    24 1   
    24    10    11 1   
    25    10    25 1   
    26    10    26 1   
    27    11    12 1   
    28    11    27 1   
    29    11    28 1   
@<TRIPOS>SUBSTRUCTURE
     1 QJA         1 TEMP              0 ****  ****    0 ROOT
