@<TRIPOS>MOLECULE
QJA
   28    29     1     0     0
SMALL
No Charge or Current Charge


@<TRIPOS>ATOM
      1 C01          4.3550    -0.4050     1.0830 c3         1 QJA      -0.177100
      2 C02          3.3660    -0.9100     0.0280 c          1 QJA       0.614100
      3 C04          2.5050     1.3850    -0.1910 c2         1 QJA      -0.062400
      4 C05          1.5430     2.0440     0.4730 c2         1 QJA      -0.123400
      5 C07         -0.6880     0.5360    -0.5350 c3         1 QJA       0.159600
      6 C08         -2.1510     0.2430    -0.3260 cc         1 QJA      -0.215300
      7 C09         -3.2160     0.7420    -1.0350 cd         1 QJA      -0.115000
      8 C10         -4.4740     0.2600    -0.5870 cd         1 QJA      -0.134000
      9 C11         -4.3820    -0.6120     0.4680 cc         1 QJA      -0.240000
     10 C13          0.0900    -0.7290    -0.9590 c3         1 QJA      -0.094400
     11 C14          1.4810    -0.4470    -1.5510 c3         1 QJA       0.100000
     12 N03          2.4590     0.0200    -0.5470 n          1 QJA      -0.355000
     13 O15          3.3620    -2.0940    -0.2870 o          1 QJA      -0.588100
     14 S06         -0.0050     1.3080     1.0070 ss         1 QJA      -0.338600
     15 S12         -2.7030    -0.8570     0.9390 ss         1 QJA       0.229000
     16 H1           3.8070     0.1340     1.8640 hc         1 QJA       0.064033
     17 H2           4.9670    -1.2100     1.5030 hc         1 QJA       0.064033
     18 H3           4.9800     0.3790     0.6420 hc         1 QJA       0.064033
     19 H4           3.4400     1.8740    -0.4700 h4         1 QJA       0.187000
     20 H5           1.6760     3.0890     0.7590 h4         1 QJA       0.204000
     21 H6          -0.6090     1.2790    -1.3400 h1         1 QJA       0.075700
     22 H7          -3.1080     1.4390    -1.8610 ha         1 QJA       0.133000
     23 H8          -5.4190     0.5530    -1.0370 ha         1 QJA       0.135000
     24 H9          -5.1690    -1.1270     1.0040 h4         1 QJA       0.151000
     25 H10          0.1790    -1.4190    -0.1120 hc         1 QJA       0.068200
     26 H11         -0.4960    -1.2480    -1.7260 hc         1 QJA       0.068200
     27 H12          1.8520    -1.3550    -2.0440 h1         1 QJA       0.062700
     28 H13          1.3900     0.3170    -2.3350 h1         1 QJA       0.062700
@<TRIPOS>BOND
     1     1     2 1   
     2     1    16 1   
     3     1    17 1   
     4     1    18 1   
     5     2    12 1   
     6     2    13 2   
     7     3     4 2   
     8     3    12 1   
     9     3    19 1   
    10     4    14 1   
    11     4    20 1   
    12     5     6 1   
    13     5    10 1   
    14     5    14 1   
    15     5    21 1   
    16     6     7 2   
    17     6    15 1   
    18     7     8 1   
    19     7    22 1   
    20     8     9 2   
    21     8    23 1   
    22     9    15 1   
    23     9    24 1   
    24    10    11 1   
    25    10    25 1   
    26    10    26 1   
    27    11    12 1   
    28    11    27 1   
    29    11    28 1   
@<TRIPOS>SUBSTRUCTURE
     1 QJA         1 TEMP              0 ****  ****    0 ROOT
