@<TRIPOS>MOLECULE
QJB
   48    50     1     0     0
SMALL
bcc


@<TRIPOS>ATOM
      1 C10         24.5660    24.0110    45.0490 c3         1 QJB       0.099000
      2 C11         25.7260    24.9900    44.9030 c3         1 QJB      -0.102400
      3 C12         25.3360    26.2810    44.2080 c3         1 QJB       0.140400
      4 C14         18.0740    23.7360    45.4450 ca         1 QJB      -0.074100
      5 C15         16.2630    22.2600    44.1140 c6         1 QJB      -0.110600
      6 C17         16.7000    19.9430    43.3520 c6         1 QJB       0.126100
      7 C6          20.0820    23.4300    47.3320 ca         1 QJB      -0.085000
      8 C5          19.0290    22.5350    47.2920 ca         1 QJB      -0.159000
      9 C4          18.0080    22.6830    46.3560 ca         1 QJB       0.173100
     10 C3          15.9240    21.7170    45.4960 c6         1 QJB       0.376900
     11 C2          16.4120    19.4940    44.7870 c6         1 QJB       0.107100
     12 C1          15.7740    18.1220    44.8590 c3         1 QJB      -0.092100
     13 O1          15.5210    20.4000    45.4420 os         1 QJB      -0.378600
     14 O2          17.0150    21.7700    46.4060 os         1 QJB      -0.371900
     15 C7          20.1530    24.4930    46.4340 ca         1 QJB      -0.115300
     16 C8          21.3260    25.4360    46.4440 c3         1 QJB      -0.107100
     17 C9          22.3380    25.0110    45.3920 c          1 QJB       0.669100
     18 O3          22.0870    25.1060    44.2000 o          1 QJB      -0.604100
     19 N1          23.4840    24.5050    45.8730 ns         1 QJB      -0.574900
     20 O4          26.4980    27.0670    44.0370 oh         1 QJB      -0.605800
     21 C13         19.1460    24.6220    45.4890 ca         1 QJB      -0.043000
     22 S1          16.8110    23.9760    44.2470 ss         1 QJB      -0.219000
     23 C16         17.2600    21.3600    43.3830 c6         1 QJB       0.173100
     24 O5          17.4980    21.7910    42.0740 oh         1 QJB      -0.572800
     25 O6          15.5520    19.9450    42.5430 oh         1 QJB      -0.572800
     26 H1          24.1620    23.7560    44.0700 h1         1 QJB       0.058700
     27 H2          24.9300    23.0840    45.4930 h1         1 QJB       0.058700
     28 H3          26.5090    24.4910    44.3250 hc         1 QJB       0.055200
     29 H4          26.1490    25.2100    45.8880 hc         1 QJB       0.055200
     30 H5          24.5870    26.8120    44.8080 h1         1 QJB       0.025700
     31 H6          24.8660    26.0460    43.2450 h1         1 QJB       0.025700
     32 H7          15.3310    22.3070    43.5470 h1         1 QJB       0.131700
     33 H8          17.4740    19.2730    42.9500 h1         1 QJB       0.050700
     34 H10         18.9830    21.7110    47.9940 ha         1 QJB       0.149000
     35 H11         15.0880    22.2820    45.9170 h2         1 QJB       0.106700
     36 H12         17.3690    19.4600    45.3220 h1         1 QJB       0.056700
     37 H13         15.6610    17.8010    45.8950 hc         1 QJB       0.049033
     38 H14         14.7870    18.1080    44.3950 hc         1 QJB       0.049033
     39 H15         16.4030    17.3900    44.3530 hc         1 QJB       0.049033
     40 H16         21.7720    25.4710    47.4390 hc         1 QJB       0.066200
     41 H17         21.0010    26.4500    46.2010 hc         1 QJB       0.066200
     42 H18         23.6150    24.4790    46.8710 hn         1 QJB       0.310500
     43 H19         26.2360    27.9020    43.6380 ho         1 QJB       0.405000
     44 H20         19.1910    25.4270    44.7660 ha         1 QJB       0.153000
     45 H21         18.1980    21.3180    43.9560 h1         1 QJB       0.044700
     46 H22         17.8990    22.6660    42.1160 ho         1 QJB       0.421000
     47 H23         15.2920    19.0360    42.3670 ho         1 QJB       0.406000
     48 H9          20.8580    23.2970    48.0750 ha         1 QJB       0.130000
@<TRIPOS>BOND
     1     1     2 1   
     2     1    19 1   
     3     1    26 1   
     4     1    27 1   
     5     2     3 1   
     6     2    28 1   
     7     2    29 1   
     8     3    20 1   
     9     3    30 1   
    10     3    31 1   
    11     4     9 ar  
    12     4    21 ar  
    13     4    22 1   
    14     5    10 1   
    15     5    22 1   
    16     5    23 1   
    17     5    32 1   
    18     6    11 1   
    19     6    23 1   
    20     6    25 1   
    21     6    33 1   
    22     7     8 ar  
    23     7    15 ar  
    24     7    48 1   
    25     8     9 ar  
    26     8    34 1   
    27     9    14 1   
    28    10    13 1   
    29    10    14 1   
    30    10    35 1   
    31    11    12 1   
    32    11    13 1   
    33    11    36 1   
    34    12    37 1   
    35    12    38 1   
    36    12    39 1   
    37    15    16 1   
    38    15    21 ar  
    39    16    17 1   
    40    16    40 1   
    41    16    41 1   
    42    17    18 2   
    43    17    19 1   
    44    19    42 1   
    45    20    43 1   
    46    21    44 1   
    47    23    24 1   
    48    23    45 1   
    49    24    46 1   
    50    25    47 1   
@<TRIPOS>SUBSTRUCTURE
     1 QJB         1 TEMP              0 ****  ****    0 ROOT
