@<TRIPOS>MOLECULE
QJB
   48    50     1     0     0
SMALL
No Charge or Current Charge


@<TRIPOS>ATOM
      1 C10         24.9180    24.2820    45.1900 c3         1 QJB       0.099000
      2 C11         25.9960    25.3850    45.2140 c3         1 QJB      -0.102400
      3 C12         25.5880    26.6810    44.4850 c3         1 QJB       0.163600
      4 C14         18.3200    23.5570    45.2000 ca         1 QJB      -0.201000
      5 C15         16.2440    22.0980    44.0030 c6         1 QJB      -0.062700
      6 C17         16.1070    19.6560    43.2750 c6         1 QJB       0.149300
      7 C6          20.3670    23.3600    47.1280 ca         1 QJB      -0.067000
      8 C5          19.3680    22.3760    47.0560 ca         1 QJB      -0.141000
      9 C4          18.3360    22.4710    46.1090 ca         1 QJB       0.173100
     10 C3          16.1100    21.6380    45.4720 c6         1 QJB       0.423300
     11 C2          16.0200    19.2990    44.7960 c6         1 QJB       0.130300
     12 C1          15.2020    18.0160    45.0920 c3         1 QJB      -0.092100
     13 O1          15.3980    20.3790    45.5360 os         1 QJB      -0.425000
     14 O2          17.3950    21.4630    46.1030 os         1 QJB      -0.395100
     15 C7          20.3460    24.4520    46.2420 ca         1 QJB      -0.115300
     16 C8          21.4310    25.5240    46.3130 c3         1 QJB      -0.107100
     17 C9          22.5750    25.2120    45.3390 c          1 QJB       0.602100
     18 O3          22.4930    25.4260    44.1380 o          1 QJB      -0.604100
     19 N1          23.7000    24.6600    45.9150 ns         1 QJB      -0.507900
     20 O4          26.6810    27.6050    44.5010 oh         1 QJB      -0.668000
     21 C13         19.3230    24.5420    45.2790 ca         1 QJB      -0.025000
     22 S1          17.0830    23.7320    43.9210 ss         1 QJB      -0.140000
     23 C16         16.9240    20.9880    43.1550 c6         1 QJB       0.196300
     24 O5          17.0630    21.4040    41.7840 oh         1 QJB      -0.635000
     25 O6          14.7860    19.8010    42.6910 oh         1 QJB      -0.695000
     26 H1          24.6670    24.0310    44.1500 h1         1 QJB       0.058700
     27 H2          25.3260    23.3750    45.6570 h1         1 QJB       0.058700
     28 H3          26.9050    24.9880    44.7460 hc         1 QJB       0.055200
     29 H4          26.2510    25.6180    46.2550 hc         1 QJB       0.055200
     30 H5          24.7130    27.1220    44.9820 h1         1 QJB       0.025700
     31 H6          25.3070    26.4420    43.4500 h1         1 QJB       0.025700
     32 H7          15.2310    22.2520    43.6090 h1         1 QJB       0.131700
     33 H8          16.6640    18.8600    42.7590 h1         1 QJB       0.050700
     34 H10         19.3870    21.5350    47.7440 ha         1 QJB       0.131000
     35 H11         15.5420    22.4000    46.0290 h2         1 QJB       0.106700
     36 H12         17.0370    19.1380    45.1840 h1         1 QJB       0.056700
     37 H13         15.2420    17.7680    46.1590 hc         1 QJB       0.049033
     38 H14         14.1460    18.1330    44.8180 hc         1 QJB       0.049033
     39 H15         15.6020    17.1570    44.5400 hc         1 QJB       0.049033
     40 H16         21.8220    25.5720    47.3360 hc         1 QJB       0.066200
     41 H17         21.0020    26.4970    46.0460 hc         1 QJB       0.066200
     42 H18         23.6690    24.5080    46.9160 hn         1 QJB       0.310500
     43 H19         26.3810    28.4120    44.0250 ho         1 QJB       0.444000
     44 H20         19.3110    25.3770    44.5810 ha         1 QJB       0.135000
     45 H21         17.9260    20.8070    43.5720 h1         1 QJB       0.044700
     46 H22         17.4780    22.2930    41.8060 ho         1 QJB       0.460000
     47 H23         14.4040    18.8980    42.6130 ho         1 QJB       0.505000
     48 H9          21.1550    23.2710    47.8730 ha         1 QJB       0.112000
@<TRIPOS>BOND
     1     1     2 1   
     2     1    19 1   
     3     1    26 1   
     4     1    27 1   
     5     2     3 1   
     6     2    28 1   
     7     2    29 1   
     8     3    20 1   
     9     3    30 1   
    10     3    31 1   
    11     4     9 ar  
    12     4    21 ar  
    13     4    22 1   
    14     5    10 1   
    15     5    22 1   
    16     5    23 1   
    17     5    32 1   
    18     6    11 1   
    19     6    23 1   
    20     6    25 1   
    21     6    33 1   
    22     7     8 ar  
    23     7    15 ar  
    24     7    48 1   
    25     8     9 ar  
    26     8    34 1   
    27     9    14 1   
    28    10    13 1   
    29    10    14 1   
    30    10    35 1   
    31    11    12 1   
    32    11    13 1   
    33    11    36 1   
    34    12    37 1   
    35    12    38 1   
    36    12    39 1   
    37    15    16 1   
    38    15    21 ar  
    39    16    17 1   
    40    16    40 1   
    41    16    41 1   
    42    17    18 2   
    43    17    19 1   
    44    19    42 1   
    45    20    43 1   
    46    21    44 1   
    47    23    24 1   
    48    23    45 1   
    49    24    46 1   
    50    25    47 1   
@<TRIPOS>SUBSTRUCTURE
     1 QJB         1 TEMP              0 ****  ****    0 ROOT
