@<TRIPOS>MOLECULE
QJC
   30    31     1     0     0
SMALL
abcg2


@<TRIPOS>ATOM
      1 C16        -45.5560   -30.8940     1.6090 c5         1 QJC       0.120000
      2 C17        -44.8210   -32.9890     0.3940 c3         1 QJC       0.203600
      3 C13        -49.1350   -28.7910     2.9960 c          1 QJC       0.532200
      4 C12        -47.7970   -28.8110     2.4520 cc         1 QJC      -0.256200
      5 C02        -43.7870   -32.4840     2.5920 c          1 QJC       0.722000
      6 C03        -44.3990   -31.8420     1.2930 c5         1 QJC      -0.242000
      7 C04        -43.3750   -30.8980     0.6360 c5         1 QJC      -0.068400
      8 C05        -43.4880   -29.6130     1.4540 c5         1 QJC       0.103000
      9 C07        -45.3090   -28.6890     2.7810 c          1 QJC       0.606300
     10 C08        -46.7240   -28.7790     3.2800 cd         1 QJC      -0.153800
     11 C09        -46.9400   -28.7270     4.6910 cd         1 QJC       0.391500
     12 F18        -45.3500   -32.5110    -0.8300 f          1 QJC      -0.316000
     13 N06        -44.8760   -29.6320     1.9440 n          1 QJC      -0.367800
     14 N10        -48.1260   -28.7260     5.2190 nc         1 QJC      -0.434300
     15 N11        -49.1650   -28.7550     4.3800 ns         1 QJC      -0.235900
     16 O01        -42.7600   -33.1820     2.4130 o          1 QJC      -0.713500
     17 O15        -44.6140   -27.7390     3.1610 o          1 QJC      -0.639100
     18 O19        -44.3610   -32.2590     3.6820 o          1 QJC      -0.713500
     19 H162       -46.1500   -31.2470     2.4450 h1         1 QJC       0.052200
     20 H161       -46.1920   -30.7570     0.7330 h1         1 QJC       0.052200
     21 H172       -43.9690   -33.6190     0.1480 h1         1 QJC       0.052700
     22 H171       -45.6070   -33.5880     0.8580 h1         1 QJC       0.052700
     23 H121       -47.6990   -28.8450     1.3750 ha         1 QJC       0.217000
     24 H041       -43.6590   -30.7100    -0.4000 hc         1 QJC       0.051700
     25 H042       -42.3700   -31.3120     0.6520 hc         1 QJC       0.051700
     26 H052       -42.8060   -29.6070     2.3080 h1         1 QJC       0.049200
     27 H051       -43.3030   -28.7110     0.8710 h1         1 QJC       0.049200
     28 H091       -46.1060   -28.6940     5.3790 h4         1 QJC       0.065800
     29 H111       -50.0740   -28.7460     4.8260 hn         1 QJC       0.341500
     30 O14        -50.1820   -28.8090     2.3450 o          1 QJC      -0.573000
@<TRIPOS>BOND
     1     1     6 1   
     2     1    13 1   
     3     1    19 1   
     4     1    20 1   
     5     2     6 1   
     6     2    12 1   
     7     2    21 1   
     8     2    22 1   
     9     3     4 1   
    10     3    15 1   
    11     3    30 2   
    12     4    10 2   
    13     4    23 1   
    14     5     6 1   
    15     5    16 1   
    16     5    18 1   
    17     6     7 1   
    18     7     8 1   
    19     7    24 1   
    20     7    25 1   
    21     8    13 1   
    22     8    26 1   
    23     8    27 1   
    24     9    10 1   
    25     9    13 1   
    26     9    17 2   
    27    10    11 1   
    28    11    14 2   
    29    11    28 1   
    30    14    15 1   
    31    15    29 1   
@<TRIPOS>SUBSTRUCTURE
     1 QJC         1 TEMP              0 ****  ****    0 ROOT
