@<TRIPOS>MOLECULE
QJC
   30    31     1     0     0
SMALL
No Charge or Current Charge


@<TRIPOS>ATOM
      1 C16        -45.5390   -30.9390     1.6110 c5         1 QJC       0.120000
      2 C17        -44.8250   -33.0090     0.1950 c3         1 QJC       0.203600
      3 C13        -49.1830   -29.0520     3.1040 c          1 QJC       0.532200
      4 C12        -47.7820   -29.1790     2.6700 cc         1 QJC      -0.256200
      5 C02        -43.7150   -32.5660     2.3810 c          1 QJC       0.722000
      6 C03        -44.3800   -31.8790     1.1490 c5         1 QJC      -0.242000
      7 C04        -43.4260   -30.8200     0.5000 c5         1 QJC      -0.068400
      8 C05        -43.4150   -29.7050     1.5760 c5         1 QJC       0.103000
      9 C07        -45.2510   -28.8240     3.0600 c          1 QJC       0.606300
     10 C08        -46.6970   -28.7440     3.4480 cd         1 QJC      -0.153800
     11 C09        -47.0260   -28.1020     4.7070 cd         1 QJC       0.391500
     12 F18        -45.4400   -32.5260    -0.9140 f          1 QJC      -0.316000
     13 N06        -44.8200   -29.7150     2.0440 n          1 QJC      -0.367800
     14 N10        -48.2860   -27.9750     5.1350 nc         1 QJC      -0.434300
     15 N11        -49.2940   -28.4530     4.3370 ns         1 QJC      -0.235900
     16 O01        -42.5120   -32.7800     2.3680 o          1 QJC      -0.713500
     17 O15        -44.4220   -28.1280     3.6350 o          1 QJC      -0.639100
     18 O19        -44.3960   -32.8430     3.3570 o          1 QJC      -0.713500
     19 H162       -46.1610   -31.3750     2.4040 h1         1 QJC       0.052200
     20 H161       -46.1860   -30.7090     0.7540 h1         1 QJC       0.052200
     21 H172       -43.9510   -33.5940    -0.1210 h1         1 QJC       0.052700
     22 H171       -45.5220   -33.6810     0.7130 h1         1 QJC       0.052700
     23 H121       -47.6910   -29.5820     1.6730 ha         1 QJC       0.217000
     24 H041       -43.8330   -30.4370    -0.4430 hc         1 QJC       0.051700
     25 H042       -42.4220   -31.2020     0.2790 hc         1 QJC       0.051700
     26 H052       -42.7270   -29.9410     2.3990 h1         1 QJC       0.049200
     27 H051       -43.1280   -28.7330     1.1530 h1         1 QJC       0.049200
     28 H091       -46.2810   -27.7040     5.3840 h4         1 QJC       0.065800
     29 H111       -50.2460   -28.3450     4.6780 hn         1 QJC       0.341500
     30 O14        -50.1470   -29.4220     2.4530 o          1 QJC      -0.573000
@<TRIPOS>BOND
     1     1     6 1   
     2     1    13 1   
     3     1    19 1   
     4     1    20 1   
     5     2     6 1   
     6     2    12 1   
     7     2    21 1   
     8     2    22 1   
     9     3     4 1   
    10     3    15 1   
    11     3    30 2   
    12     4    10 2   
    13     4    23 1   
    14     5     6 1   
    15     5    16 1   
    16     5    18 1   
    17     6     7 1   
    18     7     8 1   
    19     7    24 1   
    20     7    25 1   
    21     8    13 1   
    22     8    26 1   
    23     8    27 1   
    24     9    10 1   
    25     9    13 1   
    26     9    17 2   
    27    10    11 1   
    28    11    14 2   
    29    11    28 1   
    30    14    15 1   
    31    15    29 1   
@<TRIPOS>SUBSTRUCTURE
     1 QJC         1 TEMP              0 ****  ****    0 ROOT
