@<TRIPOS>MOLECULE
QJD
   42    44     1     0     0
SMALL
abcg2


@<TRIPOS>ATOM
      1 C10          5.0590     8.5120    22.0340 c6         1 QJD       0.208300
      2 C11          4.0050     6.3300    22.1340 c6         1 QJD       0.208300
      3 C13          1.5400     4.0780    18.9790 ca         1 QJD      -0.122500
      4 C15          7.5720     5.6330    16.6390 c3         1 QJD      -0.172100
      5 C16          6.0020     8.1770    23.1950 c6         1 QJD      -0.111400
      6 C17          4.9360     5.9040    23.2720 c6         1 QJD      -0.111400
      7 C18          0.5680     5.0580    19.1400 ca         1 QJD      -0.128000
      8 C19          7.1980     6.5060    15.4140 c          1 QJD       0.713000
      9 C20          5.3760     7.1130    24.0980 c6         1 QJD      -0.069400
     10 C1           4.7300     6.1160    19.1570 cp         1 QJD      -0.085000
     11 C2           5.3340     6.9380    20.1420 ca         1 QJD       0.268000
     12 C3           3.2910     5.7470    19.1860 cp         1 QJD       0.001000
     13 C4           5.4900     5.6840    18.0700 ca         1 QJD      -0.079000
     14 N5           4.6160     7.3470    21.2740 nh         1 QJD      -0.810400
     15 C6           6.6590     7.3420    19.9230 ca         1 QJD      -0.172000
     16 C7           2.8890     4.4210    19.0000 ca         1 QJD      -0.098000
     17 C8           2.3020     6.7240    19.3440 ca         1 QJD      -0.098000
     18 C9           6.8140     6.0720    17.8660 ca         1 QJD      -0.030300
     19 C12          7.3760     6.9310    18.8070 ca         1 QJD      -0.085000
     20 C14          0.9560     6.3840    19.3190 ca         1 QJD      -0.122500
     21 O21          7.7860     7.6130    15.3050 o          1 QJD      -0.728000
     22 O22          6.3190     6.0530    14.6370 o          1 QJD      -0.728000
     23 H28          5.5110     9.2310    21.3510 h1         1 QJD       0.048450
     24 H27          4.1600     8.9860    22.4480 h1         1 QJD       0.048450
     25 H29          3.0830     6.7470    22.5550 h1         1 QJD       0.048450
     26 H30          3.7230     5.4690    21.5350 h1         1 QJD       0.048450
     27 H32          1.2520     3.0430    18.8400 ha         1 QJD       0.100000
     28 H34          8.6440     5.7240    16.8220 hc         1 QJD       0.032700
     29 H35          7.3420     4.5920    16.4110 hc         1 QJD       0.032700
     30 H37          6.9550     7.8070    22.8070 hc         1 QJD       0.041450
     31 H36          6.2150     9.0880    23.7610 hc         1 QJD       0.041450
     32 H38          4.4210     5.1710    23.9010 hc         1 QJD       0.041450
     33 H39          5.8140     5.4060    22.8470 hc         1 QJD       0.041450
     34 H40         -0.4820     4.7940    19.1270 ha         1 QJD       0.097000
     35 H42          6.0780     6.8120    24.8790 hc         1 QJD       0.029200
     36 H41          4.5000     7.5370    24.6030 hc         1 QJD       0.029200
     37 H23          5.0100     5.0590    17.3260 ha         1 QJD       0.127000
     38 H24          7.1530     7.9690    20.6510 ha         1 QJD       0.093000
     39 H25          3.6410     3.6500    18.8840 ha         1 QJD       0.120000
     40 H26          2.5950     7.7540    19.4890 ha         1 QJD       0.120000
     41 H31          8.3990     7.2660    18.6830 ha         1 QJD       0.113000
     42 H33          0.2060     7.1570    19.4370 ha         1 QJD       0.100000
@<TRIPOS>BOND
     1     1     5 1   
     2     1    14 1   
     3     1    23 1   
     4     1    24 1   
     5     2     6 1   
     6     2    14 1   
     7     2    25 1   
     8     2    26 1   
     9     3     7 ar  
    10     3    16 ar  
    11     3    27 1   
    12     4     8 1   
    13     4    18 1   
    14     4    28 1   
    15     4    29 1   
    16     5     9 1   
    17     5    30 1   
    18     5    31 1   
    19     6     9 1   
    20     6    32 1   
    21     6    33 1   
    22     7    20 ar  
    23     7    34 1   
    24     8    21 1   
    25     8    22 1   
    26     9    35 1   
    27     9    36 1   
    28    10    11 ar  
    29    10    12 1   
    30    10    13 ar  
    31    11    14 1   
    32    11    15 ar  
    33    12    16 ar  
    34    12    17 ar  
    35    13    18 ar  
    36    13    37 1   
    37    15    19 ar  
    38    15    38 1   
    39    16    39 1   
    40    17    20 ar  
    41    17    40 1   
    42    18    19 ar  
    43    19    41 1   
    44    20    42 1   
@<TRIPOS>SUBSTRUCTURE
     1 QJD         1 TEMP              0 ****  ****    0 ROOT
