@<TRIPOS>MOLECULE
QJD
   42    44     1     0     0
SMALL
No Charge or Current Charge


@<TRIPOS>ATOM
      1 C10          5.1650     8.3630    21.8930 c6         1 QJD       0.208300
      2 C11          4.3260     6.0070    22.1460 c6         1 QJD       0.208300
      3 C13          1.5270     4.1240    19.0880 ca         1 QJD      -0.122500
      4 C15          7.4570     5.6730    16.2190 c3         1 QJD      -0.172100
      5 C16          5.6420     8.3650    23.3670 c6         1 QJD      -0.111400
      6 C17          4.7960     5.9860    23.6220 c6         1 QJD      -0.111400
      7 C18          0.6240     5.1330    19.4640 ca         1 QJD      -0.128000
      8 C19          7.2620     6.8310    15.2260 c          1 QJD       0.713000
      9 C20          4.7930     7.4060    24.2350 c6         1 QJD      -0.069400
     10 C1           4.8380     6.0380    19.0350 cp         1 QJD      -0.085000
     11 C2           5.6140     6.6740    20.0530 ca         1 QJD       0.268000
     12 C3           3.3850     5.7260    19.1940 cp         1 QJD       0.001000
     13 C4           5.4630     5.7200    17.8020 ca         1 QJD      -0.079000
     14 N5           5.1290     6.9770    21.3500 nh         1 QJD      -0.810400
     15 C6           6.9650     6.9790    19.7920 ca         1 QJD      -0.172000
     16 C7           2.8940     4.4200    18.9510 ca         1 QJD      -0.098000
     17 C8           2.4560     6.7310    19.5600 ca         1 QJD      -0.098000
     18 C9           6.8130     6.0250    17.5580 ca         1 QJD      -0.030300
     19 C12          7.5600     6.6630    18.5610 ca         1 QJD      -0.085000
     20 C14          1.0880     6.4370    19.6980 ca         1 QJD      -0.122500
     21 O21          8.0870     7.7330    15.2240 o          1 QJD      -0.728000
     22 O22          6.2340     6.8570    14.5660 o          1 QJD      -0.728000
     23 H28          5.8370     9.0000    21.2970 h1         1 QJD       0.048450
     24 H27          4.1620     8.8110    21.8340 h1         1 QJD       0.048450
     25 H29          3.2600     6.2780    22.1130 h1         1 QJD       0.048450
     26 H30          4.4210     4.9930    21.7290 h1         1 QJD       0.048450
     27 H32          1.1680     3.1140    18.9040 ha         1 QJD       0.100000
     28 H34          8.5260     5.5150    16.4060 hc         1 QJD       0.032700
     29 H35          6.9540     4.7720    15.8470 hc         1 QJD       0.032700
     30 H37          6.6980     8.0650    23.4090 hc         1 QJD       0.041450
     31 H36          5.5890     9.3850    23.7710 hc         1 QJD       0.041450
     32 H38          4.1470     5.3210    24.2080 hc         1 QJD       0.041450
     33 H39          5.8090     5.5630    23.6760 hc         1 QJD       0.041450
     34 H40         -0.4340     4.9040    19.5700 ha         1 QJD       0.097000
     35 H42          5.1870     7.3760    25.2600 hc         1 QJD       0.029200
     36 H41          3.7610     7.7800    24.3030 hc         1 QJD       0.029200
     37 H23          4.8770     5.2450    17.0190 ha         1 QJD       0.127000
     38 H24          7.5690     7.4500    20.5620 ha         1 QJD       0.093000
     39 H25          3.5850     3.6320    18.6630 ha         1 QJD       0.120000
     40 H26          2.8070     7.7440    19.7390 ha         1 QJD       0.120000
     41 H31          8.6060     6.9090    18.3910 ha         1 QJD       0.113000
     42 H33          0.3900     7.2210    19.9850 ha         1 QJD       0.100000
@<TRIPOS>BOND
     1     1     5 1   
     2     1    14 1   
     3     1    23 1   
     4     1    24 1   
     5     2     6 1   
     6     2    14 1   
     7     2    25 1   
     8     2    26 1   
     9     3     7 ar  
    10     3    16 ar  
    11     3    27 1   
    12     4     8 1   
    13     4    18 1   
    14     4    28 1   
    15     4    29 1   
    16     5     9 1   
    17     5    30 1   
    18     5    31 1   
    19     6     9 1   
    20     6    32 1   
    21     6    33 1   
    22     7    20 ar  
    23     7    34 1   
    24     8    21 1   
    25     8    22 1   
    26     9    35 1   
    27     9    36 1   
    28    10    11 ar  
    29    10    12 1   
    30    10    13 ar  
    31    11    14 1   
    32    11    15 ar  
    33    12    16 ar  
    34    12    17 ar  
    35    13    18 ar  
    36    13    37 1   
    37    15    19 ar  
    38    15    38 1   
    39    16    39 1   
    40    17    20 ar  
    41    17    40 1   
    42    18    19 ar  
    43    19    41 1   
    44    20    42 1   
@<TRIPOS>SUBSTRUCTURE
     1 QJD         1 TEMP              0 ****  ****    0 ROOT
