@<TRIPOS>MOLECULE
QJF
   43    46     1     0     0
SMALL
abcg2


@<TRIPOS>ATOM
      1 N1         -20.5330     5.6630    26.5970 ns         1 QJF      -0.170000
      2 C4         -17.4210     6.7940    24.8630 ca         1 QJF      -0.127000
      3 C5         -16.8640     5.5110    24.6640 ca         1 QJF       0.371900
      4 C6         -18.6310     4.4890    25.6900 ca         1 QJF       0.322900
      5 C7         -19.2730     5.6740    25.9410 ca         1 QJF      -0.089000
      6 C8         -20.7310     6.1500    27.8470 c          1 QJF       0.600100
      7 C10        -22.7210     7.4840    28.5530 c6         1 QJF      -0.108400
      8 C13        -23.1290     4.9990    31.8880 ca         1 QJF      -0.133000
      9 C15        -21.6030     3.3920    30.9970 ca         1 QJF       0.093000
     10 C17        -22.2570     5.2780    29.6410 ca         1 QJF      -0.140300
     11 CL         -20.6770     1.9120    31.1780 cl         1 QJF      -0.211000
     12 C14        -22.3950     3.8360    32.0490 ca         1 QJF      -0.064000
     13 C16        -21.5310     4.0990    29.8100 ca         1 QJF      -0.058000
     14 C12        -23.0720     5.7170    30.6920 ca         1 QJF       0.149100
     15 O2         -23.8280     6.8480    30.6280 os         1 QJF      -0.345100
     16 C11        -24.0230     7.4150    29.3200 c6         1 QJF       0.161600
     17 C9         -22.1700     6.0660    28.3490 c6         1 QJF      -0.082400
     18 O1         -19.8350     6.6470    28.5170 o          1 QJF      -0.561100
     19 N          -17.4380     4.3920    25.0490 nb         1 QJF      -0.661000
     20 C18        -18.6830     6.8970    25.5170 ca         1 QJF       0.037000
     21 C3         -16.7790     7.9730    24.4240 ca         1 QJF      -0.045000
     22 C2         -17.3550     9.2010    24.6130 ca         1 QJF      -0.179000
     23 C19        -19.2690     8.1600    25.6910 ca         1 QJF      -0.142000
     24 C1         -18.6180     9.2960    25.2500 ca         1 QJF       0.158100
     25 O          -19.2520    10.4710    25.4620 os         1 QJF      -0.349100
     26 C          -18.6230    11.6880    25.0470 c3         1 QJF       0.150900
     27 H1         -21.2950     5.1800    26.1450 hn         1 QJF       0.156000
     28 H3         -19.0850     3.5590    26.0130 h4         1 QJF       0.021100
     29 H4         -22.0010     8.0830    29.1130 hc         1 QJF       0.073200
     30 H5         -22.8880     7.9680    27.5890 hc         1 QJF       0.073200
     31 H6         -23.7600     5.3660    32.6870 ha         1 QJF       0.134000
     32 H7         -22.4430     3.2800    32.9750 ha         1 QJF       0.133000
     33 H8         -20.8980     3.7400    29.0090 ha         1 QJF       0.127000
     34 H9         -24.4390     8.4050    29.4960 h1         1 QJF       0.058700
     35 H10        -24.7610     6.8090    28.7850 h1         1 QJF       0.058700
     36 H11        -22.7820     5.5650    27.5950 hc         1 QJF       0.058700
     37 H12        -15.8180     7.8940    23.9310 ha         1 QJF       0.118000
     38 H13        -16.8460    10.0900    24.2720 ha         1 QJF       0.121000
     39 H14        -20.2290     8.2630    26.1750 ha         1 QJF       0.134000
     40 H15        -19.3080    12.4820    25.3280 h1         1 QJF       0.044700
     41 H16        -17.6680    11.8270    25.5570 h1         1 QJF       0.044700
     42 H17        -18.4700    11.7000    23.9660 h1         1 QJF       0.044700
     43 H2         -15.9050     5.4310    24.1610 h4         1 QJF       0.020100
@<TRIPOS>BOND
     1     1     5 1   
     2     1     6 1   
     3     1    27 1   
     4     2     3 ar  
     5     2    20 ar  
     6     2    21 ar  
     7     3    19 ar  
     8     3    43 1   
     9     4     5 ar  
    10     4    19 ar  
    11     4    28 1   
    12     5    20 ar  
    13     6    17 1   
    14     6    18 2   
    15     7    16 1   
    16     7    17 1   
    17     7    29 1   
    18     7    30 1   
    19     8    12 ar  
    20     8    14 ar  
    21     8    31 1   
    22     9    11 1   
    23     9    12 ar  
    24     9    13 ar  
    25    10    13 ar  
    26    10    14 ar  
    27    10    17 1   
    28    12    32 1   
    29    13    33 1   
    30    14    15 1   
    31    15    16 1   
    32    16    34 1   
    33    16    35 1   
    34    17    36 1   
    35    20    23 ar  
    36    21    22 ar  
    37    21    37 1   
    38    22    24 ar  
    39    22    38 1   
    40    23    24 ar  
    41    23    39 1   
    42    24    25 1   
    43    25    26 1   
    44    26    40 1   
    45    26    41 1   
    46    26    42 1   
@<TRIPOS>SUBSTRUCTURE
     1 QJF         1 TEMP              0 ****  ****    0 ROOT
