@<TRIPOS>MOLECULE
QJF
   43    46     1     0     0
SMALL
No Charge or Current Charge


@<TRIPOS>ATOM
      1 N1         -20.5600     5.5800    26.4280 ns         1 QJF      -0.170000
      2 C4         -17.5500     6.8190    24.5540 ca         1 QJF      -0.127000
      3 C5         -17.1420     5.5820    24.0200 ca         1 QJF       0.371900
      4 C6         -18.9210     4.4820    25.0060 ca         1 QJF       0.322900
      5 C7         -19.4000     5.6630    25.6090 ca         1 QJF      -0.089000
      6 C8         -20.7440     5.9780    27.7430 c          1 QJF       0.600100
      7 C10        -23.0570     6.9980    28.0490 c6         1 QJF      -0.108400
      8 C13        -23.1270     5.4760    32.0360 ca         1 QJF      -0.133000
      9 C15        -21.3090     3.9250    31.5950 ca         1 QJF       0.093000
     10 C17        -22.1950     5.3020    29.7800 ca         1 QJF      -0.140300
     11 Cl         -20.1770     2.7030    32.1620 cl         1 QJF      -0.211000
     12 C14        -22.2150     4.5090    32.4940 ca         1 QJF      -0.064000
     13 C16        -21.2990     4.3150    30.2450 ca         1 QJF      -0.058000
     14 C12        -23.1300     5.8610    30.6860 ca         1 QJF       0.149100
     15 O2         -24.0600     6.7920    30.2720 os         1 QJF      -0.345100
     16 C11        -24.3580     6.9060    28.8660 c6         1 QJF       0.161600
     17 C9         -22.1710     5.7500    28.3050 c6         1 QJF      -0.082400
     18 O1         -19.8290     6.4140    28.4350 o          1 QJF      -0.561100
     19 N          -17.8150     4.4290    24.2310 nb         1 QJF      -0.661000
     20 C18        -18.7070     6.8740    25.3600 ca         1 QJF       0.037000
     21 C3         -16.8180     7.9880    24.2760 ca         1 QJF      -0.045000
     22 C2         -17.2440     9.2240    24.7890 ca         1 QJF      -0.179000
     23 C19        -19.1380     8.1250    25.8530 ca         1 QJF      -0.142000
     24 C1         -18.4130     9.2950    25.5760 ca         1 QJF       0.158100
     25 O          -18.8890    10.4830    26.0930 os         1 QJF      -0.349100
     26 C          -18.2230    11.7400    25.8700 c3         1 QJF       0.150900
     27 H1         -21.3670     5.1580    25.9860 hn         1 QJF       0.156000
     28 H3         -19.4360     3.5350    25.1650 h4         1 QJF       0.021100
     29 H4         -22.5190     7.9090    28.3440 hc         1 QJF       0.073200
     30 H5         -23.2860     7.1000    26.9790 hc         1 QJF       0.073200
     31 H6         -23.8390     5.9210    32.7260 ha         1 QJF       0.134000
     32 H7         -22.2170     4.2060    33.5380 ha         1 QJF       0.133000
     33 H8         -20.5870     3.8520    29.5660 ha         1 QJF       0.127000
     34 H9         -24.9790     7.7980    28.7030 h1         1 QJF       0.058700
     35 H10        -24.9350     6.0250    28.5520 h1         1 QJF       0.058700
     36 H11        -22.6280     4.9620    27.6890 hc         1 QJF       0.058700
     37 H12        -15.9220     7.9420    23.6590 ha         1 QJF       0.118000
     38 H13        -16.6620    10.1120    24.5590 ha         1 QJF       0.121000
     39 H14        -20.0420     8.2130    26.4460 ha         1 QJF       0.134000
     40 H15        -18.7670    12.5520    26.3670 h1         1 QJF       0.044700
     41 H16        -17.2020    11.7180    26.2730 h1         1 QJF       0.044700
     42 H17        -18.1750    11.9710    24.7980 h1         1 QJF       0.044700
     43 H2         -16.2540     5.5110    23.3930 h4         1 QJF       0.020100
@<TRIPOS>BOND
     1     1     5 1   
     2     1     6 1   
     3     1    27 1   
     4     2     3 ar  
     5     2    20 ar  
     6     2    21 ar  
     7     3    19 ar  
     8     3    43 1   
     9     4     5 ar  
    10     4    19 ar  
    11     4    28 1   
    12     5    20 ar  
    13     6    17 1   
    14     6    18 2   
    15     7    16 1   
    16     7    17 1   
    17     7    29 1   
    18     7    30 1   
    19     8    12 ar  
    20     8    14 ar  
    21     8    31 1   
    22     9    11 1   
    23     9    12 ar  
    24     9    13 ar  
    25    10    13 ar  
    26    10    14 ar  
    27    10    17 1   
    28    12    32 1   
    29    13    33 1   
    30    14    15 1   
    31    15    16 1   
    32    16    34 1   
    33    16    35 1   
    34    17    36 1   
    35    20    23 ar  
    36    21    22 ar  
    37    21    37 1   
    38    22    24 ar  
    39    22    38 1   
    40    23    24 ar  
    41    23    39 1   
    42    24    25 1   
    43    25    26 1   
    44    26    40 1   
    45    26    41 1   
    46    26    42 1   
@<TRIPOS>SUBSTRUCTURE
     1 QJF         1 TEMP              0 ****  ****    0 ROOT
