@<TRIPOS>MOLECULE
QJG
   34    36     1     0     0
SMALL
No Charge or Current Charge


@<TRIPOS>ATOM
      1 C16        -49.3480   -31.9710     4.3690 ca         1 QJG      -0.085000
      2 C17        -48.5280   -32.0880     3.2300 ca         1 QJG       0.296000
      3 C15        -49.1510   -30.9440     5.3060 ca         1 QJG      -0.131000
      4 C13        -48.1170   -30.0240     5.1110 ca         1 QJG       0.130000
      5 C12        -47.2870   -30.1160     3.9850 ca         1 QJG      -0.068000
      6 C11        -47.4840   -31.1370     3.0210 ca         1 QJG      -0.040000
      7 C10        -46.6580   -31.2650     1.8620 ca         1 QJG      -0.008600
      8 C19        -47.9860   -33.2150     1.3040 ca         1 QJG       0.591300
      9 C01        -43.0660   -28.8040     1.8680 c3         1 QJG      -0.099100
     10 C02        -43.2060   -30.0450     0.9510 cy         1 QJG       0.109700
     11 C03        -42.5290   -31.3790     1.4460 cy         1 QJG      -0.094400
     12 C04        -43.9810   -31.9920     1.6760 cy         1 QJG      -0.017300
     13 C05        -43.8410   -31.9750     3.2760 c          1 QJG       0.709000
     14 C09        -45.5530   -30.2730     1.4830 c          1 QJG       0.620700
     15 C21        -46.9440   -32.3440     0.9950 ca         1 QJG      -0.145000
     16 F14        -47.9140   -29.0430     6.0180 f          1 QJG      -0.197000
     17 N08        -44.4540   -30.8810     0.7720 nj         1 QJG      -0.376800
     18 N18        -48.7650   -33.1080     2.3750 nb         1 QJG      -0.776000
     19 O20        -48.3060   -34.2480     0.5170 oh         1 QJG      -0.655300
     20 O22        -45.8260   -29.0810     1.5990 o          1 QJG      -0.665100
     21 H161       -50.1470   -32.6910     4.5270 ha         1 QJG       0.120000
     22 H151       -49.7920   -30.8680     6.1810 ha         1 QJG       0.118000
     23 H121       -46.4830   -29.3930     3.8960 ha         1 QJG       0.157000
     24 H011       -43.5490   -27.9250     1.4250 hc         1 QJG       0.043033
     25 H013       -43.4760   -28.9540     2.8710 hc         1 QJG       0.043033
     26 H012       -42.0070   -28.5490     1.9910 hc         1 QJG       0.043033
     27 H021       -42.8170   -29.7590    -0.0320 h1         1 QJG       0.038700
     28 H031       -41.9730   -31.8930     0.6550 hc         1 QJG       0.051200
     29 H032       -41.8400   -31.2640     2.2930 hc         1 QJG       0.051200
     30 H041       -44.1090   -32.9920     1.2500 h1         1 QJG       0.048700
     31 H211       -46.3860   -32.4990     0.0780 ha         1 QJG       0.139000
     32 H201       -49.0610   -34.6440     0.9950 ho         1 QJG       0.472000
     33 O06        -44.2650   -31.0710     3.9780 o          1 QJG      -0.710500
     34 O07        -43.3450   -32.9290     3.8600 o          1 QJG      -0.710500
@<TRIPOS>BOND
     1     1     2 ar  
     2     1     3 ar  
     3     1    21 1   
     4     2     6 ar  
     5     2    18 ar  
     6     3     4 ar  
     7     3    22 1   
     8     4     5 ar  
     9     4    16 1   
    10     5     6 ar  
    11     5    23 1   
    12     6     7 ar  
    13     7    14 1   
    14     7    15 ar  
    15     8    15 ar  
    16     8    18 ar  
    17     8    19 1   
    18     9    10 1   
    19     9    24 1   
    20     9    25 1   
    21     9    26 1   
    22    10    11 1   
    23    10    17 1   
    24    10    27 1   
    25    11    12 1   
    26    11    28 1   
    27    11    29 1   
    28    12    13 1   
    29    12    17 1   
    30    12    30 1   
    31    13    33 1   
    32    13    34 1   
    33    14    17 1   
    34    14    20 2   
    35    15    31 1   
    36    19    32 1   
@<TRIPOS>SUBSTRUCTURE
     1 QJG         1 TEMP              0 ****  ****    0 ROOT
