@<TRIPOS>MOLECULE
QJG
   34    36     1     0     0
SMALL
abcg2


@<TRIPOS>ATOM
      1 C16        -49.4230   -31.8730     4.4230 ca         1 QJG      -0.085000
      2 C17        -48.5680   -32.0350     3.3110 ca         1 QJG       0.296000
      3 C15        -49.3130   -30.7740     5.2400 ca         1 QJG      -0.131000
      4 C13        -48.3340   -29.8170     4.9500 ca         1 QJG       0.130000
      5 C12        -47.4800   -29.9200     3.8910 ca         1 QJG      -0.068000
      6 C11        -47.5840   -31.0420     3.0400 ca         1 QJG      -0.040000
      7 C10        -46.7310   -31.2580     1.9150 ca         1 QJG      -0.008600
      8 C19        -47.9220   -33.2950     1.5110 ca         1 QJG       0.591300
      9 C01        -42.8400   -28.7830     2.0210 c3         1 QJG      -0.099100
     10 C02        -43.2110   -29.9310     1.1030 cy         1 QJG       0.109700
     11 C03        -42.4270   -31.2550     1.2980 cy         1 QJG      -0.094400
     12 C04        -43.7660   -31.9560     1.6700 cy         1 QJG      -0.017300
     13 C05        -43.8030   -32.5830     3.0780 c          1 QJG       0.709000
     14 C09        -45.6960   -30.2360     1.5360 c          1 QJG       0.620700
     15 C21        -46.9040   -32.3760     1.1530 ca         1 QJG      -0.145000
     16 F14        -48.2420   -28.7380     5.7710 f          1 QJG      -0.197000
     17 N08        -44.4380   -30.6630     1.4660 nj         1 QJG      -0.376800
     18 N18        -48.7160   -33.1490     2.5330 nb         1 QJG      -0.776000
     19 O20        -48.0530   -34.3870     0.7280 oh         1 QJG      -0.655300
     20 O22        -46.0310   -29.0690     1.2920 o          1 QJG      -0.665100
     21 H161       -50.1660   -32.6350     4.6180 ha         1 QJG       0.120000
     22 H151       -49.9610   -30.6360     6.0950 ha         1 QJG       0.118000
     23 H121       -46.7450   -29.1500     3.7040 ha         1 QJG       0.157000
     24 H011       -43.5380   -27.9530     1.9180 hc         1 QJG       0.043033
     25 H013       -42.8340   -29.1110     3.0620 hc         1 QJG       0.043033
     26 H012       -41.8390   -28.4270     1.7640 hc         1 QJG       0.043033
     27 H021       -43.2500   -29.5940     0.0650 h1         1 QJG       0.038700
     28 H031       -41.9500   -31.6410     0.4010 hc         1 QJG       0.051200
     29 H032       -41.7060   -31.2210     2.1120 hc         1 QJG       0.051200
     30 H041       -44.0750   -32.7050     0.9430 h1         1 QJG       0.048700
     31 H211       -46.2940   -32.5760     0.2830 ha         1 QJG       0.139000
     32 H201       -48.7770   -34.9290     1.0800 ho         1 QJG       0.472000
     33 O06        -44.2580   -31.9050     4.0260 o          1 QJG      -0.710500
     34 O07        -43.3190   -33.7410     3.1280 o          1 QJG      -0.710500
@<TRIPOS>BOND
     1     1     2 ar  
     2     1     3 ar  
     3     1    21 1   
     4     2     6 ar  
     5     2    18 ar  
     6     3     4 ar  
     7     3    22 1   
     8     4     5 ar  
     9     4    16 1   
    10     5     6 ar  
    11     5    23 1   
    12     6     7 ar  
    13     7    14 1   
    14     7    15 ar  
    15     8    15 ar  
    16     8    18 ar  
    17     8    19 1   
    18     9    10 1   
    19     9    24 1   
    20     9    25 1   
    21     9    26 1   
    22    10    11 1   
    23    10    17 1   
    24    10    27 1   
    25    11    12 1   
    26    11    28 1   
    27    11    29 1   
    28    12    13 1   
    29    12    17 1   
    30    12    30 1   
    31    13    33 1   
    32    13    34 1   
    33    14    17 1   
    34    14    20 2   
    35    15    31 1   
    36    19    32 1   
@<TRIPOS>SUBSTRUCTURE
     1 QJG         1 TEMP              0 ****  ****    0 ROOT
