@<TRIPOS>MOLECULE
QJI
   44    47     1     0     0
SMALL
abcg2


@<TRIPOS>ATOM
      1 N1           9.5090   -10.0500     5.1660 nc         1 QJI      -0.295600
      2 C7           9.0610   -10.8700     7.2230 cd         1 QJI      -0.287300
      3 C8           8.5700   -10.5640     5.9660 cc         1 QJI       0.020600
      4 N2          14.9130    -9.5950    11.4000 n7         1 QJI      -0.861400
      5 C9          10.6170   -10.0150     5.9020 cd         1 QJI      -0.065000
      6 C1           6.3220   -12.3220     9.2650 ca         1 QJI      -0.024000
      7 C5           4.7280   -14.0090     9.9720 ca         1 QJI      -0.087000
      8 C6           5.5400   -13.4470     8.9990 ca         1 QJI       0.083000
      9 N3          10.3960   -10.5060     7.1680 na         1 QJI       0.176100
     10 C4           4.7040   -13.4600    11.2440 ca         1 QJI      -0.114000
     11 C3           5.4770   -12.3430    11.5270 ca         1 QJI      -0.092000
     12 C2           6.2690   -11.7720    10.5450 ca         1 QJI      -0.098000
     13 CL           5.5780   -14.1600     7.4210 cl         1 QJI      -0.205000
     14 N            7.1070   -11.7540     8.2550 ns         1 QJI      -0.149000
     15 C            8.4240   -11.4280     8.4090 c          1 QJI       0.665300
     16 O            9.0190   -11.5880     9.4640 o          1 QJI      -0.603100
     17 C18         11.3910   -10.5690     8.1050 cc         1 QJI      -0.093000
     18 C12         12.6450   -10.1390     7.7990 cd         1 QJI      -0.105300
     19 C11         12.8940    -9.6330     6.4950 cc         1 QJI      -0.090000
     20 C10         11.9050    -9.5700     5.5610 cd         1 QJI      -0.086000
     21 C13         13.7640   -10.1500     8.8080 c6         1 QJI      -0.010400
     22 C17         13.5280   -11.0460    10.0210 c6         1 QJI      -0.074400
     23 C16         14.7150   -10.9680    10.9700 c6         1 QJI       0.159800
     24 C15         15.2240    -8.7260    10.2800 c6         1 QJI       0.159800
     25 C14         14.0740    -8.7240     9.2840 c6         1 QJI      -0.074400
     26 H1           7.5560   -10.6970     5.6120 h4         1 QJI       0.224000
     27 H2          15.6650    -9.5570    12.0750 hn         1 QJI       0.412000
     28 H4           4.1280   -14.8770     9.7350 ha         1 QJI       0.130000
     29 H5           4.0780   -13.9040    12.0060 ha         1 QJI       0.120000
     30 H6           5.4550   -11.9010    12.5140 ha         1 QJI       0.121000
     31 H7           6.8410   -10.8830    10.7670 ha         1 QJI       0.135000
     32 H8           6.7150   -11.7480     7.3260 hn         1 QJI       0.166000
     33 H9          11.1100   -10.9690     9.0630 h4         1 QJI       0.183000
     34 H10         13.8930    -9.2970     6.2440 ha         1 QJI       0.125000
     35 H11         12.0780    -9.1940     4.5620 ha         1 QJI       0.147000
     36 H12         14.6580   -10.5250     8.2920 hc         1 QJI       0.052700
     37 H13         12.6320   -10.7250    10.5610 hc         1 QJI       0.053450
     38 H14         13.3680   -12.0810     9.7090 hc         1 QJI       0.053450
     39 H15         14.5300   -11.5910    11.8470 h1         1 QJI       0.030450
     40 H16         15.6010   -11.3820    10.4610 h1         1 QJI       0.030450
     41 H17         16.1450    -9.0290     9.7540 h1         1 QJI       0.030450
     42 H18         15.3910    -7.7130    10.6530 h1         1 QJI       0.030450
     43 H19         14.3260    -8.0810     8.4380 hc         1 QJI       0.053450
     44 H20         13.1800    -8.3050     9.7560 hc         1 QJI       0.053450
@<TRIPOS>BOND
     1     1     3 1   
     2     1     5 2   
     3     2     3 2   
     4     2     9 1   
     5     2    15 1   
     6     3    26 1   
     7     4    23 1   
     8     4    24 1   
     9     4    27 1   
    10     5     9 1   
    11     5    20 1   
    12     6     8 ar  
    13     6    12 ar  
    14     6    14 1   
    15     7     8 ar  
    16     7    10 ar  
    17     7    28 1   
    18     8    13 1   
    19     9    17 1   
    20    10    11 ar  
    21    10    29 1   
    22    11    12 ar  
    23    11    30 1   
    24    12    31 1   
    25    14    15 1   
    26    14    32 1   
    27    15    16 2   
    28    17    18 2   
    29    17    33 1   
    30    18    19 1   
    31    18    21 1   
    32    19    20 2   
    33    19    34 1   
    34    20    35 1   
    35    21    22 1   
    36    21    25 1   
    37    21    36 1   
    38    22    23 1   
    39    22    37 1   
    40    22    38 1   
    41    23    39 1   
    42    23    40 1   
    43    24    25 1   
    44    24    41 1   
    45    24    42 1   
    46    25    43 1   
    47    25    44 1   
@<TRIPOS>SUBSTRUCTURE
     1 QJI         1 TEMP              0 ****  ****    0 ROOT
