@<TRIPOS>MOLECULE
QJI
   44    47     1     0     0
SMALL
No Charge or Current Charge


@<TRIPOS>ATOM
      1 N1           9.7160   -11.0200     5.2420 nc         1 QJI      -0.295600
      2 C7           9.2870   -11.2480     7.4730 cd         1 QJI      -0.287300
      3 C8           8.7830   -11.3580     6.1870 cc         1 QJI       0.020600
      4 N2          15.0800    -9.5450    11.3970 n7         1 QJI      -0.861400
      5 C9          10.7930   -10.7010     5.9290 cd         1 QJI      -0.065000
      6 C1           6.1890   -12.3220     9.4020 ca         1 QJI      -0.024000
      7 C5           3.8730   -13.0800     9.6490 ca         1 QJI      -0.087000
      8 C6           4.9510   -12.7000     8.8330 ca         1 QJI       0.083000
      9 N3          10.5920   -10.8210     7.2820 na         1 QJI       0.176100
     10 C4           4.0150   -13.0870    11.0460 ca         1 QJI      -0.114000
     11 C3           5.2380   -12.7130    11.6240 ca         1 QJI      -0.092000
     12 C2           6.3200   -12.3330    10.8100 ca         1 QJI      -0.098000
     13 Cl           4.7320   -12.7040     7.0820 cl         1 QJI      -0.205000
     14 N            7.2440   -11.9470     8.5190 ns         1 QJI      -0.149000
     15 C            8.5520   -11.5350     8.7350 c          1 QJI       0.665300
     16 O            9.0590   -11.4170     9.8430 o          1 QJI      -0.603100
     17 C18         11.5550   -10.5510     8.2580 cc         1 QJI      -0.093000
     18 C12         12.7850   -10.1340     7.7310 cd         1 QJI      -0.105300
     19 C11         13.0090   -10.0070     6.3610 cc         1 QJI      -0.090000
     20 C10         12.0470   -10.2770     5.4110 cd         1 QJI      -0.086000
     21 C13         13.9230    -9.8070     8.6920 c6         1 QJI      -0.010400
     22 C17         14.3370   -11.0450     9.5350 c6         1 QJI      -0.074400
     23 C16         15.4680   -10.6840    10.5300 c6         1 QJI       0.159800
     24 C15         14.7130    -8.3330    10.6250 c6         1 QJI       0.159800
     25 C14         13.5600    -8.6260     9.6330 c6         1 QJI      -0.074400
     26 H1           7.7920   -11.6630     5.8600 h4         1 QJI       0.224000
     27 H2          15.8680    -9.3170    12.0170 hn         1 QJI       0.412000
     28 H4           2.9260   -13.3680     9.1980 ha         1 QJI       0.130000
     29 H5           3.1790   -13.3810    11.6780 ha         1 QJI       0.120000
     30 H6           5.3500   -12.7180    12.7060 ha         1 QJI       0.121000
     31 H7           7.2480   -12.0510    11.2960 ha         1 QJI       0.135000
     32 H8           6.9830   -11.9920     7.5450 hn         1 QJI       0.166000
     33 H9          11.3060   -10.6730     9.3020 h4         1 QJI       0.183000
     34 H10         13.9830    -9.6800     6.0100 ha         1 QJI       0.125000
     35 H11         12.2350   -10.1740     4.3470 ha         1 QJI       0.147000
     36 H12         14.8080    -9.5000     8.1160 hc         1 QJI       0.052700
     37 H13         13.4770   -11.4340    10.0960 hc         1 QJI       0.053450
     38 H14         14.6720   -11.8550     8.8730 hc         1 QJI       0.053450
     39 H15         15.7020   -11.5580    11.1550 h1         1 QJI       0.030450
     40 H16         16.3790   -10.4230     9.9700 h1         1 QJI       0.030450
     41 H17         15.5920    -7.9740    10.0690 h1         1 QJI       0.030450
     42 H18         14.4090    -7.5340    11.3180 h1         1 QJI       0.030450
     43 H19         13.3460    -7.7260     9.0400 hc         1 QJI       0.053450
     44 H20         12.6480    -8.8520    10.2000 hc         1 QJI       0.053450
@<TRIPOS>BOND
     1     1     3 1   
     2     1     5 2   
     3     2     3 2   
     4     2     9 1   
     5     2    15 1   
     6     3    26 1   
     7     4    23 1   
     8     4    24 1   
     9     4    27 1   
    10     5     9 1   
    11     5    20 1   
    12     6     8 ar  
    13     6    12 ar  
    14     6    14 1   
    15     7     8 ar  
    16     7    10 ar  
    17     7    28 1   
    18     8    13 1   
    19     9    17 1   
    20    10    11 ar  
    21    10    29 1   
    22    11    12 ar  
    23    11    30 1   
    24    12    31 1   
    25    14    15 1   
    26    14    32 1   
    27    15    16 2   
    28    17    18 2   
    29    17    33 1   
    30    18    19 1   
    31    18    21 1   
    32    19    20 2   
    33    19    34 1   
    34    20    35 1   
    35    21    22 1   
    36    21    25 1   
    37    21    36 1   
    38    22    23 1   
    39    22    37 1   
    40    22    38 1   
    41    23    39 1   
    42    23    40 1   
    43    24    25 1   
    44    24    41 1   
    45    24    42 1   
    46    25    43 1   
    47    25    44 1   
@<TRIPOS>SUBSTRUCTURE
     1 QJI         1 TEMP              0 ****  ****    0 ROOT
