@<TRIPOS>MOLECULE
QJJ
   40    43     1     0     0
SMALL
abcg2


@<TRIPOS>ATOM
      1 C7           2.3730     1.1570    -0.0660 c          1 QJJ       0.510600
      2 C6          -3.9050     1.2330     0.4120 c2         1 QJJ       0.723100
      3 C1           6.1210     0.7880    -0.1320 ca         1 QJJ      -0.127000
      4 C5           3.7490     0.5570    -0.0050 ca         1 QJJ       0.271500
      5 C4           6.1880    -0.5680     0.1060 ca         1 QJJ       0.136000
      6 C3           5.0330    -1.3130     0.2820 ca         1 QJJ       0.302900
      7 C2           4.8630     1.3650    -0.1870 ca         1 QJJ      -0.077000
      8 F22          7.3720    -1.1800     0.1710 f          1 QJJ      -0.163000
      9 N16          3.8410    -0.7490     0.2250 nb         1 QJJ      -0.658000
     10 O20          2.2140     2.3500    -0.2800 o          1 QJJ      -0.595100
     11 N19          1.3750     0.2880     0.1310 ns         1 QJJ      -0.467900
     12 C14          0.0040     0.6730     0.1160 cx         1 QJJ       0.072700
     13 C8          -0.6630     0.9770    -1.1910 cx         1 QJJ      -0.115400
     14 C12         -0.9700    -0.2970    -0.4670 cx         1 QJJ      -0.135700
     15 C15         -2.3080    -0.5570     0.1910 c5         1 QJJ       0.182200
     16 N17         -2.8330     0.6570     0.7590 n2         1 QJJ      -0.705900
     17 C10         -2.1800    -1.5850     1.3180 c5         1 QJJ       0.161600
     18 O21         -3.4810    -2.0990     1.4960 os         1 QJJ      -0.445000
     19 C9          -4.1120    -2.1640     0.2260 c5         1 QJJ       0.150600
     20 C13         -3.2520    -1.3370    -0.7390 c5         1 QJJ      -0.132700
     21 C11         -4.0140    -0.4740    -1.7220 c6         1 QJJ       0.078600
     22 S23         -5.0280     0.7680    -0.8850 ss         1 QJJ      -0.403200
     23 H1           7.0190     1.3770    -0.2700 ha         1 QJJ       0.143000
     24 H2           5.0840    -2.3800     0.4680 h4         1 QJJ       0.039100
     25 H3           4.7530     2.4240    -0.3690 ha         1 QJJ       0.155000
     26 H4           1.6230    -0.6670     0.3420 hn         1 QJJ       0.343500
     27 H5          -0.3300     1.2460     0.9740 h1         1 QJJ       0.112700
     28 H6          -1.4020     1.7680    -1.1950 hc         1 QJJ       0.085200
     29 H7          -0.0670     0.9110    -2.0910 hc         1 QJJ       0.085200
     30 H8          -0.5260    -1.1900    -0.8980 hc         1 QJJ       0.079700
     31 H9          -1.4720    -2.3760     1.0310 h1         1 QJJ       0.058700
     32 H10         -1.8360    -1.1380     2.2520 h1         1 QJJ       0.058700
     33 H11         -4.1880    -3.2010    -0.1170 h1         1 QJJ       0.054200
     34 H12         -5.1280    -1.7690     0.3200 h1         1 QJJ       0.054200
     35 H13         -2.6350    -2.0170    -1.3360 hc         1 QJJ       0.072700
     36 H14         -3.3260     0.0240    -2.4050 h1         1 QJJ       0.080200
     37 H15         -4.7030    -1.0690    -2.3210 h1         1 QJJ       0.080200
     38 H16         -3.9090     2.5500     1.9380 hn         1 QJJ       0.477500
     39 H17         -5.2730     2.6630     0.9450 hn         1 QJJ       0.477500
     40 N18         -4.3100     2.3800     1.0290 nv         1 QJJ      -1.019200
@<TRIPOS>BOND
     1     1     4 1   
     2     1    10 2   
     3     1    11 1   
     4     2    16 2   
     5     2    22 1   
     6     2    40 1   
     7     3     5 ar  
     8     3     7 ar  
     9     3    23 1   
    10     4     7 ar  
    11     4     9 ar  
    12     5     6 ar  
    13     5     8 1   
    14     6     9 ar  
    15     6    24 1   
    16     7    25 1   
    17    11    12 1   
    18    11    26 1   
    19    12    13 1   
    20    12    14 1   
    21    12    27 1   
    22    13    14 1   
    23    13    28 1   
    24    13    29 1   
    25    14    15 1   
    26    14    30 1   
    27    15    16 1   
    28    15    17 1   
    29    15    20 1   
    30    17    18 1   
    31    17    31 1   
    32    17    32 1   
    33    18    19 1   
    34    19    20 1   
    35    19    33 1   
    36    19    34 1   
    37    20    21 1   
    38    20    35 1   
    39    21    22 1   
    40    21    36 1   
    41    21    37 1   
    42    38    40 1   
    43    39    40 1   
@<TRIPOS>SUBSTRUCTURE
     1 QJJ         1 TEMP              0 ****  ****    0 ROOT
