@<TRIPOS>MOLECULE
QJJ
   40    43     1     0     0
SMALL
No Charge or Current Charge


@<TRIPOS>ATOM
      1 C7           2.3800     1.1470     0.2200 c          1 QJJ       0.510600
      2 C6          -3.8000     1.3430     0.2020 c2         1 QJJ       0.723100
      3 C1           6.2180     0.8960     0.2410 ca         1 QJJ      -0.127000
      4 C5           3.7980     0.5760     0.1010 ca         1 QJJ       0.271500
      5 C4           6.3690    -0.4530    -0.1120 ca         1 QJJ       0.136000
      6 C3           5.2190    -1.2340    -0.3440 ca         1 QJJ       0.302900
      7 C2           4.9130     1.4130     0.3480 ca         1 QJJ      -0.077000
      8 F22          7.6050    -0.9930    -0.2260 f          1 QJJ      -0.163000
      9 N16          3.9560    -0.7420    -0.2420 nb         1 QJJ      -0.658000
     10 O20          2.1440     2.3130     0.5240 o          1 QJJ      -0.595100
     11 N19          1.3600     0.2520    -0.0410 ns         1 QJJ      -0.467900
     12 C14         -0.0430     0.5660     0.0060 cx         1 QJJ       0.072700
     13 C8          -0.7590     0.7800    -1.3120 cx         1 QJJ      -0.115400
     14 C12         -1.0080    -0.4790    -0.5080 cx         1 QJJ      -0.135700
     15 C15         -2.3640    -0.5670     0.2610 c5         1 QJJ       0.182200
     16 N17         -2.8920     0.7230     0.8540 n2         1 QJJ      -0.705900
     17 C10         -2.1510    -1.5870     1.4320 c5         1 QJJ       0.161600
     18 O21         -3.4410    -2.2290     1.6400 os         1 QJJ      -0.445000
     19 C9          -4.3110    -1.9220     0.5220 c5         1 QJJ       0.150600
     20 C13         -3.3560    -1.4050    -0.5880 c5         1 QJJ      -0.132700
     21 C11         -3.9770    -0.6580    -1.7670 c6         1 QJJ       0.078600
     22 S23         -4.7790     0.8810    -1.2060 ss         1 QJJ      -0.403200
     23 H1           7.0870     1.5220     0.4260 ha         1 QJJ       0.143000
     24 H2           5.3100    -2.2840    -0.6180 h4         1 QJJ       0.039100
     25 H3           4.7620     2.4560     0.6190 ha         1 QJJ       0.155000
     26 H4           1.6630    -0.6870    -0.2810 hn         1 QJJ       0.343500
     27 H5          -0.3360     1.1840     0.8570 h1         1 QJJ       0.112700
     28 H6          -1.5210     1.5520    -1.3500 hc         1 QJJ       0.085200
     29 H7          -0.1750     0.6870    -2.2250 hc         1 QJJ       0.085200
     30 H8          -0.5790    -1.3990    -0.9000 hc         1 QJJ       0.079700
     31 H9          -1.4250    -2.3660     1.1630 h1         1 QJJ       0.058700
     32 H10         -1.8110    -1.1090     2.3600 h1         1 QJJ       0.058700
     33 H11         -4.8680    -2.8190     0.2210 h1         1 QJJ       0.054200
     34 H12         -5.0330    -1.1570     0.8410 h1         1 QJJ       0.054200
     35 H13         -2.8530    -2.2660    -1.0450 hc         1 QJJ       0.072700
     36 H14         -3.1940    -0.3860    -2.4900 h1         1 QJJ       0.080200
     37 H15         -4.7200    -1.2800    -2.2870 h1         1 QJJ       0.080200
     38 H16         -4.0880     2.6020     1.6650 hn         1 QJJ       0.477500
     39 H17         -5.2530     2.6550     0.4180 hn         1 QJJ       0.477500
     40 N18         -4.2890     2.4980     0.6790 nv         1 QJJ      -1.019200
@<TRIPOS>BOND
     1     1     4 1   
     2     1    10 2   
     3     1    11 1   
     4     2    16 2   
     5     2    22 1   
     6     2    40 1   
     7     3     5 ar  
     8     3     7 ar  
     9     3    23 1   
    10     4     7 ar  
    11     4     9 ar  
    12     5     6 ar  
    13     5     8 1   
    14     6     9 ar  
    15     6    24 1   
    16     7    25 1   
    17    11    12 1   
    18    11    26 1   
    19    12    13 1   
    20    12    14 1   
    21    12    27 1   
    22    13    14 1   
    23    13    28 1   
    24    13    29 1   
    25    14    15 1   
    26    14    30 1   
    27    15    16 1   
    28    15    17 1   
    29    15    20 1   
    30    17    18 1   
    31    17    31 1   
    32    17    32 1   
    33    18    19 1   
    34    19    20 1   
    35    19    33 1   
    36    19    34 1   
    37    20    21 1   
    38    20    35 1   
    39    21    22 1   
    40    21    36 1   
    41    21    37 1   
    42    38    40 1   
    43    39    40 1   
@<TRIPOS>SUBSTRUCTURE
     1 QJJ         1 TEMP              0 ****  ****    0 ROOT
