@<TRIPOS>MOLECULE
QJL
   57    60     1     0     0
SMALL
abcg2


@<TRIPOS>ATOM
      1 N1         -24.1850     5.2960    27.2510 ns         1 QJL      -0.495900
      2 N3         -16.4880     4.5420    27.0400 nb         1 QJL      -0.645000
      3 C4         -22.7450     5.3340    27.1450 c3         1 QJL       0.113000
      4 C5         -22.0320     6.0140    28.3560 c6         1 QJL      -0.089700
      5 C6         -22.1060     7.5620    28.3050 c6         1 QJL      -0.104400
      6 C7         -23.4010     8.0990    28.8700 c6         1 QJL       0.164600
      7 C8         -23.3870     6.3510    30.4840 ca         1 QJL       0.149100
      8 C10        -23.8220     4.5280    32.0080 ca         1 QJL      -0.065000
      9 C13        -22.6510     5.5080    29.6460 ca         1 QJL      -0.130300
     10 C15        -18.5590     5.7470    26.8300 ca         1 QJL      -0.080000
     11 C17        -15.8890     5.4530    26.3060 ca         1 QJL       0.348900
     12 C20        -16.5310     8.6410    24.5030 ca         1 QJL      -0.111000
     13 C21        -17.9020     8.8200    24.7910 ca         1 QJL      -0.087000
     14 C22        -18.5910     7.9030    25.5460 ca         1 QJL      -0.112000
     15 C14        -20.5210     5.6820    28.3250 c          1 QJL       0.603100
     16 N2         -19.9390     5.8450    27.1030 ns         1 QJL      -0.161000
     17 C23        -17.9310     6.7550    26.0470 ca         1 QJL      -0.028000
     18 C19        -15.8650     7.5450    24.9860 ca         1 QJL      -0.078000
     19 C18        -16.5460     6.5840    25.7690 ca         1 QJL      -0.087000
     20 C16        -17.8130     4.6880    27.2880 ca         1 QJL       0.328900
     21 C12        -22.5340     4.1620    29.9990 ca         1 QJL      -0.050000
     22 C11        -23.1140     3.6850    31.1590 ca         1 QJL       0.092000
     23 CL         -22.9500     1.9860    31.5690 cl         1 QJL      -0.211000
     24 C9         -23.9560     5.8600    31.6610 ca         1 QJL      -0.138000
     25 O1         -23.5920     7.6740    30.2290 os         1 QJL      -0.349100
     26 C3         -25.0260     6.0400    26.5180 c          1 QJL       0.592100
     27 O          -24.6720     6.8920    25.7010 o          1 QJL      -0.628100
     28 C2         -26.5040     5.7300    26.7350 c3         1 QJL       0.076800
     29 N          -26.7810     4.9580    27.9370 n3         1 QJL      -0.741600
     30 C1         -27.9480     4.0950    27.7900 c3         1 QJL       0.149600
     31 C          -26.8990     5.8080    29.1170 c3         1 QJL       0.149600
     32 H1         -24.6320     4.6340    27.8750 hn         1 QJL       0.349500
     33 H2         -22.3830     4.3100    27.0540 h1         1 QJL       0.061200
     34 H3         -22.5110     5.8600    26.2210 h1         1 QJL       0.061200
     35 H4         -21.2820     7.9760    28.8900 hc         1 QJL       0.066700
     36 H5         -21.9850     7.9100    27.2790 hc         1 QJL       0.066700
     37 H6         -23.3830     9.1860    28.9080 h1         1 QJL       0.063700
     38 H7         -24.2620     7.7870    28.2800 h1         1 QJL       0.063700
     39 H8         -24.2700     4.1470    32.9140 ha         1 QJL       0.132000
     40 H9         -14.8300     5.3160    26.1070 h4         1 QJL       0.022100
     41 H10        -16.0110     9.3770    23.9040 ha         1 QJL       0.119000
     42 H11        -18.4140     9.6960    24.4160 ha         1 QJL       0.117000
     43 H12        -19.6360     8.0700    25.7660 ha         1 QJL       0.111000
     44 H13        -20.5100     6.2020    26.3540 hn         1 QJL       0.156000
     45 H14        -14.8120     7.3990    24.7800 ha         1 QJL       0.120000
     46 H15        -18.2810     3.9130    27.8790 h4         1 QJL       0.038100
     47 H16        -21.9780     3.4860    29.3650 ha         1 QJL       0.130000
     48 H17        -24.5180     6.5380    32.2890 ha         1 QJL       0.132000
     49 H18        -27.0480     6.6840    26.7020 h1         1 QJL       0.066700
     50 H19        -26.8160     5.1570    25.8590 h1         1 QJL       0.066700
     51 H21        -27.8080     3.4260    26.9400 h1         1 QJL       0.038200
     52 H22        -28.0650     3.4910    28.6900 h1         1 QJL       0.038200
     53 H23        -28.8770     4.6650    27.6370 h1         1 QJL       0.038200
     54 H24        -26.9990     5.1860    30.0070 h1         1 QJL       0.038200
     55 H25        -26.0080     6.4220    29.2340 h1         1 QJL       0.038200
     56 H26        -27.7720     6.4780    29.0570 h1         1 QJL       0.038200
     57 O2         -19.8920     5.3660    29.3220 o          1 QJL      -0.552100
@<TRIPOS>BOND
     1     1     3 1   
     2     1    26 1   
     3     1    32 1   
     4     2    11 ar  
     5     2    20 ar  
     6     3     4 1   
     7     3    33 1   
     8     3    34 1   
     9     4     5 1   
    10     4     9 1   
    11     4    15 1   
    12     5     6 1   
    13     5    35 1   
    14     5    36 1   
    15     6    25 1   
    16     6    37 1   
    17     6    38 1   
    18     7     9 ar  
    19     7    24 ar  
    20     7    25 1   
    21     8    22 ar  
    22     8    24 ar  
    23     8    39 1   
    24     9    21 ar  
    25    10    16 1   
    26    10    17 ar  
    27    10    20 ar  
    28    11    19 ar  
    29    11    40 1   
    30    12    13 ar  
    31    12    18 ar  
    32    12    41 1   
    33    13    14 ar  
    34    13    42 1   
    35    14    17 ar  
    36    14    43 1   
    37    15    16 1   
    38    15    57 2   
    39    16    44 1   
    40    17    19 ar  
    41    18    19 ar  
    42    18    45 1   
    43    20    46 1   
    44    21    22 ar  
    45    21    47 1   
    46    22    23 1   
    47    24    48 1   
    48    26    27 2   
    49    26    28 1   
    50    28    29 1   
    51    28    49 1   
    52    28    50 1   
    53    29    30 1   
    54    29    31 1   
    55    30    51 1   
    56    30    52 1   
    57    30    53 1   
    58    31    54 1   
    59    31    55 1   
    60    31    56 1   
@<TRIPOS>SUBSTRUCTURE
     1 QJL         1 TEMP              0 ****  ****    0 ROOT
