@<TRIPOS>MOLECULE
QJL
   57    60     1     0     0
SMALL
No Charge or Current Charge


@<TRIPOS>ATOM
      1 N1         -24.4760     4.9630    27.1050 ns         1 QJL      -0.495900
      2 N3         -16.2450     4.7390    27.3480 nb         1 QJL      -0.645000
      3 C4         -23.0380     4.9990    26.8130 c3         1 QJL       0.113000
      4 C5         -22.1620     5.7680    27.8680 c6         1 QJL      -0.089700
      5 C6         -22.2340     7.3230    27.6120 c6         1 QJL      -0.104400
      6 C7         -23.4520     7.9790    28.2740 c6         1 QJL       0.164600
      7 C8         -23.2290     6.4630    30.1400 ca         1 QJL       0.149100
      8 C10        -23.6000     4.8600    31.9350 ca         1 QJL      -0.065000
      9 C13        -22.6820     5.4470    29.3090 ca         1 QJL      -0.130300
     10 C15        -18.3240     5.9820    27.0230 ca         1 QJL      -0.080000
     11 C17        -15.5980     5.6830    26.6310 ca         1 QJL       0.348900
     12 C20        -16.1630     8.8840    24.8100 ca         1 QJL      -0.111000
     13 C21        -17.5440     9.0510    25.0000 ca         1 QJL      -0.087000
     14 C22        -18.2780     8.1010    25.7310 ca         1 QJL      -0.112000
     15 C14        -20.6940     5.2150    27.6700 c          1 QJL       0.603100
     16 N2         -19.7250     6.1230    27.2530 ns         1 QJL      -0.161000
     17 C23        -17.6310     6.9710    26.2810 ca         1 QJL      -0.028000
     18 C19        -15.5110     7.7640    25.3510 ca         1 QJL      -0.078000
     19 C18        -16.2420     6.8090    26.0840 ca         1 QJL      -0.087000
     20 C16        -17.5770     4.8920    27.5370 ca         1 QJL       0.328900
     21 C12        -22.6690     4.1210    29.8100 ca         1 QJL      -0.050000
     22 C11        -23.1180     3.8350    31.1100 ca         1 QJL       0.092000
     23 Cl         -23.0770     2.1800    31.7050 cl         1 QJL      -0.211000
     24 C9         -23.6600     6.1720    31.4440 ca         1 QJL      -0.138000
     25 O1         -23.3980     7.7520    29.6910 os         1 QJL      -0.349100
     26 C3         -25.4580     5.6370    26.4180 c          1 QJL       0.592100
     27 O          -25.2080     6.4140    25.5050 o          1 QJL      -0.628100
     28 C2         -26.9020     5.3180    26.9000 c3         1 QJL       0.076800
     29 N          -27.0730     4.8330    28.3160 n3         1 QJL      -0.741600
     30 C1         -28.3890     4.1950    28.5420 c3         1 QJL       0.149600
     31 C          -26.7800     5.8740    29.3300 c3         1 QJL       0.149600
     32 H1         -24.8130     4.3840    27.8670 hn         1 QJL       0.349500
     33 H2         -22.7110     3.9510    26.7730 h1         1 QJL       0.061200
     34 H3         -22.8660     5.4180    25.8130 h1         1 QJL       0.061200
     35 H4         -21.3650     7.8330    28.0500 hc         1 QJL       0.066700
     36 H5         -22.2210     7.5520    26.5370 hc         1 QJL       0.066700
     37 H6         -23.4510     9.0630    28.0880 h1         1 QJL       0.063700
     38 H7         -24.3870     7.5700    27.8760 h1         1 QJL       0.063700
     39 H8         -23.9450     4.6340    32.9410 ha         1 QJL       0.132000
     40 H9         -14.5270     5.5330    26.4950 h4         1 QJL       0.022100
     41 H10        -15.5980     9.6210    24.2440 ha         1 QJL       0.119000
     42 H11        -18.0480     9.9190    24.5780 ha         1 QJL       0.117000
     43 H12        -19.3460     8.2580    25.8560 ha         1 QJL       0.111000
     44 H13        -20.0730     7.0580    27.0920 hn         1 QJL       0.156000
     45 H14        -14.4400     7.6390    25.2000 ha         1 QJL       0.120000
     46 H15        -18.0400     4.1180    28.1440 h4         1 QJL       0.038100
     47 H16        -22.3210     3.2950    29.1990 ha         1 QJL       0.130000
     48 H17        -24.0650     6.9660    32.0670 ha         1 QJL       0.132000
     49 H18        -27.5090     6.2160    26.7280 h1         1 QJL       0.066700
     50 H19        -27.2660     4.5470    26.2080 h1         1 QJL       0.066700
     51 H21        -28.5470     3.3680    27.8370 h1         1 QJL       0.038200
     52 H22        -28.4540     3.7860    29.5590 h1         1 QJL       0.038200
     53 H23        -29.2050     4.9190    28.4110 h1         1 QJL       0.038200
     54 H24        -26.8240     5.4530    30.3430 h1         1 QJL       0.038200
     55 H25        -25.7770     6.2920    29.1860 h1         1 QJL       0.038200
     56 H26        -27.5040     6.6970    29.2680 h1         1 QJL       0.038200
     57 O2         -20.4240     4.0320    27.8370 o          1 QJL      -0.552100
@<TRIPOS>BOND
     1     1     3 1   
     2     1    26 1   
     3     1    32 1   
     4     2    11 ar  
     5     2    20 ar  
     6     3     4 1   
     7     3    33 1   
     8     3    34 1   
     9     4     5 1   
    10     4     9 1   
    11     4    15 1   
    12     5     6 1   
    13     5    35 1   
    14     5    36 1   
    15     6    25 1   
    16     6    37 1   
    17     6    38 1   
    18     7     9 ar  
    19     7    24 ar  
    20     7    25 1   
    21     8    22 ar  
    22     8    24 ar  
    23     8    39 1   
    24     9    21 ar  
    25    10    16 1   
    26    10    17 ar  
    27    10    20 ar  
    28    11    19 ar  
    29    11    40 1   
    30    12    13 ar  
    31    12    18 ar  
    32    12    41 1   
    33    13    14 ar  
    34    13    42 1   
    35    14    17 ar  
    36    14    43 1   
    37    15    16 1   
    38    15    57 2   
    39    16    44 1   
    40    17    19 ar  
    41    18    19 ar  
    42    18    45 1   
    43    20    46 1   
    44    21    22 ar  
    45    21    47 1   
    46    22    23 1   
    47    24    48 1   
    48    26    27 2   
    49    26    28 1   
    50    28    29 1   
    51    28    49 1   
    52    28    50 1   
    53    29    30 1   
    54    29    31 1   
    55    30    51 1   
    56    30    52 1   
    57    30    53 1   
    58    31    54 1   
    59    31    55 1   
    60    31    56 1   
@<TRIPOS>SUBSTRUCTURE
     1 QJL         1 TEMP              0 ****  ****    0 ROOT
