@<TRIPOS>MOLECULE
QJM
   40    43     1     0     0
SMALL
No Charge or Current Charge


@<TRIPOS>ATOM
      1 C8           0.7450     1.2270     2.0260 cx         1 QJM      -0.100400
      2 C9           4.3850     1.0830    -1.3700 c5         1 QJM       0.151600
      3 C7          -2.0970    -0.5590     0.8900 c          1 QJM       0.510600
      4 C6           3.2790    -1.3340     0.6170 c2         1 QJM       0.720100
      5 C5          -3.4750    -0.2520     0.2930 ca         1 QJM       0.271500
      6 C4          -5.9750     0.2970    -0.7870 ca         1 QJM       0.136000
      7 C3          -4.8450     1.1000    -1.0440 ca         1 QJM       0.302900
      8 C2          -4.5700    -1.0990     0.5900 ca         1 QJM      -0.076000
      9 C1          -5.8390    -0.8240     0.0450 ca         1 QJM      -0.126000
     10 F22         -7.1760     0.5990    -1.3320 f          1 QJM      -0.163000
     11 N16         -3.6170     0.8410    -0.5220 nb         1 QJM      -0.659000
     12 O20         -1.8770    -1.5170     1.6260 o          1 QJM      -0.592100
     13 C14          0.2740     0.2370     0.9820 cx         1 QJM       0.054700
     14 C12          1.2020     1.3650     0.5900 cx         1 QJM      -0.133700
     15 C15          2.6820     0.9580     0.2950 c5         1 QJM       0.181200
     16 N17          3.2560    -0.1650     1.1330 n2         1 QJM      -0.703900
     17 C10          3.5580     2.2360     0.5270 c5         1 QJM       0.164600
     18 O21          4.6730     2.1270    -0.4060 os         1 QJM      -0.446000
     19 C13          2.8560     0.8410    -1.2420 c5         1 QJM      -0.134700
     20 C11          2.2830    -0.4350    -1.8560 c6         1 QJM       0.077600
     21 S23          2.9650    -1.9120    -1.0330 ss         1 QJM      -0.402200
     22 N18          3.7630    -2.3660     1.3260 nv         1 QJM      -1.018200
     23 H1           0.0250     1.9510     2.3990 hc         1 QJM       0.089700
     24 H2           1.4490     0.8730     2.7750 hc         1 QJM       0.089700
     25 H3           4.6820     1.4080    -2.3760 h1         1 QJM       0.053700
     26 H4           4.9710     0.1920    -1.1070 h1         1 QJM       0.053700
     27 H5          -4.9240     1.9760    -1.6860 h4         1 QJM       0.039100
     28 H6          -4.4330    -1.9610     1.2390 ha         1 QJM       0.155000
     29 H7          -6.6930    -1.4610     0.2610 ha         1 QJM       0.144000
     30 H8          -1.3820     1.0810    -0.0720 hn         1 QJM       0.341500
     31 H9           0.6620    -0.7810     1.0290 h1         1 QJM       0.101700
     32 H10          0.7740     2.1890     0.0230 hc         1 QJM       0.080700
     33 H11          3.0060     3.1550     0.2880 h1         1 QJM       0.059700
     34 H12          3.9320     2.3190     1.5560 h1         1 QJM       0.059700
     35 H13          2.3310     1.6530    -1.7600 hc         1 QJM       0.071700
     36 H14          1.1910    -0.4510    -1.7280 h1         1 QJM       0.079200
     37 H15          2.5000    -0.4920    -2.9320 h1         1 QJM       0.079200
     38 H16          4.3350    -2.0460     2.0970 hn         1 QJM       0.477500
     39 H17          4.1820    -3.0800     0.7470 hn         1 QJM       0.477500
     40 N19         -1.0930     0.3260     0.5420 ns         1 QJM      -0.467900
@<TRIPOS>BOND
     1     1    13 1   
     2     1    14 1   
     3     1    23 1   
     4     1    24 1   
     5     2    18 1   
     6     2    19 1   
     7     2    25 1   
     8     2    26 1   
     9     3     5 1   
    10     3    12 2   
    11     3    40 1   
    12     4    16 2   
    13     4    21 1   
    14     4    22 1   
    15     5     8 ar  
    16     5    11 ar  
    17     6     7 ar  
    18     6     9 ar  
    19     6    10 1   
    20     7    11 ar  
    21     7    27 1   
    22     8     9 ar  
    23     8    28 1   
    24     9    29 1   
    25    13    14 1   
    26    13    31 1   
    27    13    40 1   
    28    14    15 1   
    29    14    32 1   
    30    15    16 1   
    31    15    17 1   
    32    15    19 1   
    33    17    18 1   
    34    17    33 1   
    35    17    34 1   
    36    19    20 1   
    37    19    35 1   
    38    20    21 1   
    39    20    36 1   
    40    20    37 1   
    41    22    38 1   
    42    22    39 1   
    43    30    40 1   
@<TRIPOS>SUBSTRUCTURE
     1 QJM         1 TEMP              0 ****  ****    0 ROOT
