@<TRIPOS>MOLECULE
QJM
   40    43     1     0     0
SMALL
abcg2


@<TRIPOS>ATOM
      1 C8           0.6910     0.8620     2.1280 cx         1 QJM      -0.100400
      2 C9           4.1480     1.3530    -1.4920 c5         1 QJM       0.151600
      3 C7          -2.1610    -0.3920     1.0340 c          1 QJM       0.510600
      4 C6           3.4950    -1.3070     0.5040 c2         1 QJM       0.720100
      5 C5          -3.4730    -0.1400     0.3490 ca         1 QJM       0.271500
      6 C4          -5.7950     0.3340    -0.9200 ca         1 QJM       0.136000
      7 C3          -4.6020     0.8930    -1.3500 ca         1 QJM       0.302900
      8 C2          -4.6300    -0.7340     0.8350 ca         1 QJM      -0.076000
      9 C1          -5.8280    -0.4930     0.1830 ca         1 QJM      -0.126000
     10 F22         -6.9170     0.6030    -1.5890 f          1 QJM      -0.163000
     11 N16         -3.4680     0.6510    -0.7190 nb         1 QJM      -0.659000
     12 O20         -2.0900    -1.1000     2.0280 o          1 QJM      -0.592100
     13 C14          0.2180     0.0530     0.9590 cx         1 QJM       0.054700
     14 C12          1.1730     1.1780     0.7460 cx         1 QJM      -0.133700
     15 C15          2.5980     0.9190     0.3020 c5         1 QJM       0.181200
     16 N17          3.1540    -0.2000     1.0160 n2         1 QJM      -0.703900
     17 C10          3.4910     2.1330     0.5660 c5         1 QJM       0.164600
     18 O21          4.5990     1.9640    -0.2910 os         1 QJM      -0.446000
     19 C13          2.7180     0.8650    -1.2300 c5         1 QJM      -0.134700
     20 C11          2.3520    -0.4690    -1.8430 c6         1 QJM       0.077600
     21 S23          3.3590    -1.8230    -1.1900 ss         1 QJM      -0.402200
     22 N18          4.0080    -2.3020     1.2810 nv         1 QJM      -1.018200
     23 H1          -0.0080     1.5520     2.5830 hc         1 QJM       0.089700
     24 H2           1.3740     0.3800     2.8150 hc         1 QJM       0.089700
     25 H3           4.1670     2.0670    -2.3210 h1         1 QJM       0.053700
     26 H4           4.8260     0.5320    -1.7440 h1         1 QJM       0.053700
     27 H5          -4.5740     1.5410    -2.2180 h4         1 QJM       0.039100
     28 H6          -4.5980    -1.3760     1.7030 ha         1 QJM       0.155000
     29 H7          -6.7550    -0.9370     0.5210 ha         1 QJM       0.144000
     30 H8          -1.2730     0.7490    -0.3700 hn         1 QJM       0.341500
     31 H9           0.6130    -0.9560     0.8850 h1         1 QJM       0.101700
     32 H10          0.7430     2.0710     0.3010 hc         1 QJM       0.080700
     33 H11          2.9480     3.0620     0.3410 h1         1 QJM       0.059700
     34 H12          3.8370     2.1780     1.5990 h1         1 QJM       0.059700
     35 H13          2.0120     1.5930    -1.6410 hc         1 QJM       0.071700
     36 H14          1.2980    -0.6900    -1.6740 h1         1 QJM       0.079200
     37 H15          2.5170    -0.4680    -2.9210 h1         1 QJM       0.079200
     38 H16          4.3820    -2.0100     2.1710 hn         1 QJM       0.477500
     39 H17          4.5260    -3.0450     0.8410 hn         1 QJM       0.477500
     40 N19         -1.1090     0.2080     0.4660 ns         1 QJM      -0.467900
@<TRIPOS>BOND
     1     1    13 1   
     2     1    14 1   
     3     1    23 1   
     4     1    24 1   
     5     2    18 1   
     6     2    19 1   
     7     2    25 1   
     8     2    26 1   
     9     3     5 1   
    10     3    12 2   
    11     3    40 1   
    12     4    16 2   
    13     4    21 1   
    14     4    22 1   
    15     5     8 ar  
    16     5    11 ar  
    17     6     7 ar  
    18     6     9 ar  
    19     6    10 1   
    20     7    11 ar  
    21     7    27 1   
    22     8     9 ar  
    23     8    28 1   
    24     9    29 1   
    25    13    14 1   
    26    13    31 1   
    27    13    40 1   
    28    14    15 1   
    29    14    32 1   
    30    15    16 1   
    31    15    17 1   
    32    15    19 1   
    33    17    18 1   
    34    17    33 1   
    35    17    34 1   
    36    19    20 1   
    37    19    35 1   
    38    20    21 1   
    39    20    36 1   
    40    20    37 1   
    41    22    38 1   
    42    22    39 1   
    43    30    40 1   
@<TRIPOS>SUBSTRUCTURE
     1 QJM         1 TEMP              0 ****  ****    0 ROOT
