@<TRIPOS>MOLECULE
QJN
   68    69     1     0     0
SMALL
bcc


@<TRIPOS>ATOM
      1 C2          -4.7350    18.8370   -43.3040 c6         1 QJN       0.083100
      2 C4          -3.7240    20.5900   -44.7420 c6         1 QJN       0.131100
      3 C5          -3.9200    21.5640   -43.5740 c6         1 QJN       0.134100
      4 C6          -4.1710    22.9910   -44.0070 c3         1 QJN       0.144400
      5 C1          -2.9930    19.3920   -37.2260 c6         1 QJN      -0.152400
      6 C15         -3.2340    18.1420   -38.0550 c6         1 QJN       0.116100
      7 O2          -2.3080    17.1160   -37.7700 oh         1 QJN      -0.603800
      8 C3          -3.0930    18.4610   -39.5350 c6         1 QJN       0.144100
      9 O3          -3.3840    17.3270   -40.3240 oh         1 QJN      -0.611800
     10 C16         -4.0490    19.5760   -39.9450 c6         1 QJN       0.174100
     11 C17         -3.8210    20.8400   -39.1020 c6         1 QJN      -0.074700
     12 C18         -4.7230    21.9880   -39.5300 c3         1 QJN       0.143400
     13 C7          -3.9670    20.4970   -37.6160 c6         1 QJN       0.157100
     14 O1          -3.8250    19.8230   -41.3200 os         1 QJN      -0.454600
     15 C19         -4.9100    19.8880   -42.2030 c6         1 QJN       0.320900
     16 O5          -5.0200    21.1550   -42.7720 os         1 QJN      -0.404600
     17 O6          -5.3060    23.0530   -44.8370 oh         1 QJN      -0.591800
     18 O4          -2.5900    20.9760   -45.4780 os         1 QJN      -0.411600
     19 C20         -3.5420    19.1830   -44.1940 c6         1 QJN       0.105100
     20 O9          -3.4400    18.2900   -45.2760 oh         1 QJN      -0.591800
     21 O8          -4.6630    17.5300   -42.8040 oh         1 QJN      -0.610800
     22 O7          -3.7340    21.6700   -36.8680 oh         1 QJN      -0.592800
     23 C10         -0.5340    20.3400   -47.4970 c3         1 QJN      -0.071400
     24 C11          0.7600    20.5820   -48.2700 c3         1 QJN      -0.075400
     25 C12          0.5790    20.6670   -49.7820 c3         1 QJN      -0.075400
     26 C13          1.8900    20.7600   -50.5600 c3         1 QJN      -0.074400
     27 C14          2.6820    22.0330   -50.2870 c3         1 QJN      -0.089100
     28 H2          -5.6370    18.8790   -43.9260 h1         1 QJN       0.088700
     29 H4          -4.6260    20.6030   -45.3680 h1         1 QJN       0.072700
     30 H5          -2.9980    21.5800   -42.9770 h1         1 QJN       0.062700
     31 H62         -3.2690    23.3520   -44.5150 h1         1 QJN       0.031200
     32 H61         -4.2920    23.6060   -43.1050 h1         1 QJN       0.031200
     33 H1'1        -3.1070    19.1550   -36.1630 hc         1 QJN       0.057200
     34 H6          -1.9660    19.7420   -37.3740 hc         1 QJN       0.057200
     35 H15         -4.2630    17.7910   -37.8800 h1         1 QJN       0.044700
     36 HO2         -2.5090    16.7530   -36.9020 ho         1 QJN       0.413000
     37 H3          -2.0630    18.8060   -39.7170 h1         1 QJN       0.058700
     38 HO3         -2.7740    16.6200   -40.0860 ho         1 QJN       0.431000
     39 H16         -5.0770    19.2210   -39.7920 h1         1 QJN       0.065700
     40 H17         -2.7880    21.1740   -39.2660 hc         1 QJN       0.073700
     41 HO6         -6.6250    22.2880   -39.7800 ho         1 QJN       0.411000
     42 H6'1        -4.4700    22.2840   -40.5520 h1         1 QJN       0.038700
     43 H6'2        -4.5160    22.8560   -38.8950 h1         1 QJN       0.038700
     44 H7          -4.9900    20.1320   -37.4430 h1         1 QJN       0.045700
     45 H1          -5.8500    19.7130   -41.6670 h2         1 QJN       0.088700
     46 H21         -5.3840    23.9510   -45.1720 ho         1 QJN       0.402000
     47 H19         -2.6220    19.1620   -43.5870 h1         1 QJN       0.052700
     48 H20         -3.4060    17.3980   -44.9150 ho         1 QJN       0.416000
     49 H18         -4.0650    17.4990   -42.0360 ho         1 QJN       0.441000
     50 HO7         -3.9160    21.4760   -35.9430 ho         1 QJN       0.407000
     51 H91         -1.0330    22.4040   -47.1150 hc         1 QJN       0.041200
     52 H9          -1.7460    21.7680   -48.5790 hc         1 QJN       0.041200
     53 H101        -1.0290    19.4450   -47.8890 hc         1 QJN       0.048700
     54 H10         -0.2870    20.1170   -46.4560 hc         1 QJN       0.048700
     55 H111         1.4590    19.7680   -48.0500 hc         1 QJN       0.036700
     56 H11          1.2360    21.4940   -47.8950 hc         1 QJN       0.036700
     57 H121        -0.0460    21.5270   -50.0420 hc         1 QJN       0.035700
     58 H12          0.0310    19.7810   -50.1190 hc         1 QJN       0.035700
     59 H131         1.6700    20.7010   -51.6290 hc         1 QJN       0.035200
     60 H13          2.5100    19.8870   -50.3310 hc         1 QJN       0.035200
     61 H14          3.5730    22.0840   -50.9140 hc         1 QJN       0.030033
     62 H141         2.0810    22.9200   -50.4950 hc         1 QJN       0.030033
     63 H22          3.0120    22.0940   -49.2500 hc         1 QJN       0.030033
     64 C8          -2.8240    21.2470   -46.8450 c3         1 QJN       0.143400
     65 O10         -6.0720    21.5840   -39.4290 oh         1 QJN      -0.613800
     66 C9          -1.5070    21.5140   -47.5420 c3         1 QJN      -0.073400
     67 H81         -3.4890    22.1130   -46.9550 h1         1 QJN       0.028200
     68 H8          -3.3250    20.3960   -47.3250 h1         1 QJN       0.028200
@<TRIPOS>BOND
     1     1    15 1   
     2     1    19 1   
     3     1    21 1   
     4     1    28 1   
     5     2     3 1   
     6     2    18 1   
     7     2    19 1   
     8     2    29 1   
     9     3     4 1   
    10     3    16 1   
    11     3    30 1   
    12     4    17 1   
    13     4    31 1   
    14     4    32 1   
    15     5     6 1   
    16     5    13 1   
    17     5    33 1   
    18     5    34 1   
    19     6     7 1   
    20     6     8 1   
    21     6    35 1   
    22     7    36 1   
    23     8     9 1   
    24     8    10 1   
    25     8    37 1   
    26     9    38 1   
    27    10    11 1   
    28    10    14 1   
    29    10    39 1   
    30    11    12 1   
    31    11    13 1   
    32    11    40 1   
    33    12    42 1   
    34    12    43 1   
    35    12    65 1   
    36    13    22 1   
    37    13    44 1   
    38    14    15 1   
    39    15    16 1   
    40    15    45 1   
    41    17    46 1   
    42    18    64 1   
    43    19    20 1   
    44    19    47 1   
    45    20    48 1   
    46    21    49 1   
    47    22    50 1   
    48    23    24 1   
    49    23    53 1   
    50    23    54 1   
    51    23    66 1   
    52    24    25 1   
    53    24    55 1   
    54    24    56 1   
    55    25    26 1   
    56    25    57 1   
    57    25    58 1   
    58    26    27 1   
    59    26    59 1   
    60    26    60 1   
    61    27    61 1   
    62    27    62 1   
    63    27    63 1   
    64    41    65 1   
    65    51    66 1   
    66    52    66 1   
    67    64    66 1   
    68    64    67 1   
    69    64    68 1   
@<TRIPOS>SUBSTRUCTURE
     1 QJN         1 TEMP              0 ****  ****    0 ROOT
