@<TRIPOS>MOLECULE
QJN
   68    69     1     0     0
SMALL
No Charge or Current Charge


@<TRIPOS>ATOM
      1 C2          -5.1810    19.4430   -43.1110 c6         1 QJN       0.106300
      2 C4          -3.9020    20.8700   -44.8380 c6         1 QJN       0.154300
      3 C5          -3.7630    21.9520   -43.7210 c6         1 QJN       0.157300
      4 C6          -3.7430    23.4070   -44.2970 c3         1 QJN       0.167600
      5 C1          -2.9900    18.8190   -37.3420 c6         1 QJN      -0.152400
      6 C15         -3.1960    17.8240   -38.5050 c6         1 QJN       0.139300
      7 O2          -2.2670    16.7360   -38.3910 oh         1 QJN      -0.666000
      8 C3          -3.0020    18.5460   -39.8680 c6         1 QJN       0.167300
      9 O3          -3.1630    17.5980   -40.9450 oh         1 QJN      -0.734000
     10 C16         -3.9920    19.7410   -40.0000 c6         1 QJN       0.197300
     11 C17         -3.8560    20.7480   -38.8160 c6         1 QJN      -0.074700
     12 C18         -4.8680    21.9280   -38.9340 c3         1 QJN       0.166600
     13 C7          -3.9700    20.0160   -37.4420 c6         1 QJN       0.180300
     14 O1          -3.7860    20.4040   -41.2730 os         1 QJN      -0.501000
     15 C19         -4.9640    20.6030   -42.0820 c6         1 QJN       0.367300
     16 O5          -4.8540    21.8660   -42.7640 os         1 QJN      -0.451000
     17 O6          -4.9860    23.8090   -44.9110 oh         1 QJN      -0.714000
     18 O4          -2.7660    20.9750   -45.7440 os         1 QJN      -0.458000
     19 C20         -4.0460    19.4510   -44.1750 c6         1 QJN       0.128300
     20 O9          -4.3220    18.3970   -45.1170 oh         1 QJN      -0.714000
     21 O8          -5.2570    18.1310   -42.4970 oh         1 QJN      -0.733000
     22 O7          -3.6870    20.9220   -36.3710 oh         1 QJN      -0.655000
     23 C10         -0.2410    20.4410   -47.3000 c3         1 QJN      -0.071400
     24 C11          0.9330    20.9840   -48.1500 c3         1 QJN      -0.075400
     25 C12          1.0640    20.3350   -49.5500 c3         1 QJN      -0.075400
     26 C13          2.3280    20.7620   -50.3320 c3         1 QJN      -0.074400
     27 C14          2.3690    22.2570   -50.7100 c3         1 QJN      -0.089100
     28 H2          -6.1280    19.6610   -43.6300 h1         1 QJN       0.088700
     29 H4          -4.8190    21.0860   -45.4060 h1         1 QJN       0.072700
     30 H5          -2.8140    21.7920   -43.1900 h1         1 QJN       0.062700
     31 H62         -2.9200    23.4850   -45.0210 h1         1 QJN       0.031200
     32 H61         -3.5010    24.0870   -43.4690 h1         1 QJN       0.031200
     33 H1'1        -3.1370    18.3020   -36.3840 hc         1 QJN       0.057200
     34 H6          -1.9530    19.1850   -37.3450 hc         1 QJN       0.057200
     35 H15         -4.2270    17.4400   -38.4570 h1         1 QJN       0.044700
     36 HO2         -2.4140    16.3250   -37.5090 ho         1 QJN       0.452000
     37 H3          -1.9810    18.9560   -39.8910 h1         1 QJN       0.058700
     38 HO3         -2.6650    16.8000   -40.6320 ho         1 QJN       0.530000
     39 H16         -5.0080    19.3190   -39.9700 h1         1 QJN       0.065700
     40 H17         -2.8580    21.2030   -38.8770 hc         1 QJN       0.073700
     41 HO6         -6.7980    22.2850   -38.8860 ho         1 QJN       0.450000
     42 H6'1        -4.6620    22.4770   -39.8630 h1         1 QJN       0.038700
     43 H6'2        -4.6900    22.6290   -38.1080 h1         1 QJN       0.038700
     44 H7          -4.9950    19.6270   -37.3400 h1         1 QJN       0.045700
     45 H1          -5.8500    20.6540   -41.4310 h2         1 QJN       0.088700
     46 H21         -4.8860    24.7560   -45.1670 ho         1 QJN       0.501000
     47 H19         -3.0990    19.2360   -43.6550 h1         1 QJN       0.052700
     48 H20         -4.7580    17.6950   -44.5750 ho         1 QJN       0.515000
     49 H18         -4.4290    18.0180   -41.9340 ho         1 QJN       0.540000
     50 HO7         -3.8570    20.4350   -35.5350 ho         1 QJN       0.446000
     51 H91         -1.7500    21.8390   -48.0180 hc         1 QJN       0.041200
     52 H9          -1.7500    20.2930   -48.8600 hc         1 QJN       0.041200
     53 H101        -0.1310    19.3550   -47.1840 hc         1 QJN       0.048700
     54 H10         -0.1610    20.8710   -46.2940 hc         1 QJN       0.048700
     55 H111         1.8650    20.8160   -47.5960 hc         1 QJN       0.036700
     56 H11          0.8210    22.0700   -48.2530 hc         1 QJN       0.036700
     57 H121         0.1800    20.5730   -50.1540 hc         1 QJN       0.035700
     58 H12          1.0810    19.2440   -49.4340 hc         1 QJN       0.035700
     59 H131         2.3840    20.1690   -51.2540 hc         1 QJN       0.035200
     60 H13          3.2220    20.5130   -49.7460 hc         1 QJN       0.035200
     61 H14          3.2490    22.4690   -51.3290 hc         1 QJN       0.030033
     62 H141         1.4750    22.5390   -51.2800 hc         1 QJN       0.030033
     63 H22          2.4260    22.8900   -49.8160 hc         1 QJN       0.030033
     64 C8          -2.8070    20.2530   -46.9890 c3         1 QJN       0.166600
     65 O10         -6.2330    21.4810   -38.9170 oh         1 QJN      -0.676000
     66 C9          -1.6460    20.7570   -47.8720 c3         1 QJN      -0.073400
     67 H81         -3.7580    20.4310   -47.5090 h1         1 QJN       0.028200
     68 H8          -2.6880    19.1740   -46.8330 h1         1 QJN       0.028200
@<TRIPOS>BOND
     1     1    15 1   
     2     1    19 1   
     3     1    21 1   
     4     1    28 1   
     5     2     3 1   
     6     2    18 1   
     7     2    19 1   
     8     2    29 1   
     9     3     4 1   
    10     3    16 1   
    11     3    30 1   
    12     4    17 1   
    13     4    31 1   
    14     4    32 1   
    15     5     6 1   
    16     5    13 1   
    17     5    33 1   
    18     5    34 1   
    19     6     7 1   
    20     6     8 1   
    21     6    35 1   
    22     7    36 1   
    23     8     9 1   
    24     8    10 1   
    25     8    37 1   
    26     9    38 1   
    27    10    11 1   
    28    10    14 1   
    29    10    39 1   
    30    11    12 1   
    31    11    13 1   
    32    11    40 1   
    33    12    42 1   
    34    12    43 1   
    35    12    65 1   
    36    13    22 1   
    37    13    44 1   
    38    14    15 1   
    39    15    16 1   
    40    15    45 1   
    41    17    46 1   
    42    18    64 1   
    43    19    20 1   
    44    19    47 1   
    45    20    48 1   
    46    21    49 1   
    47    22    50 1   
    48    23    24 1   
    49    23    53 1   
    50    23    54 1   
    51    23    66 1   
    52    24    25 1   
    53    24    55 1   
    54    24    56 1   
    55    25    26 1   
    56    25    57 1   
    57    25    58 1   
    58    26    27 1   
    59    26    59 1   
    60    26    60 1   
    61    27    61 1   
    62    27    62 1   
    63    27    63 1   
    64    41    65 1   
    65    51    66 1   
    66    52    66 1   
    67    64    66 1   
    68    64    67 1   
    69    64    68 1   
@<TRIPOS>SUBSTRUCTURE
     1 QJN         1 TEMP              0 ****  ****    0 ROOT
