@<TRIPOS>MOLECULE
QJO
   29    30     1     0     0
SMALL
abcg2


@<TRIPOS>ATOM
      1 C14        -44.5260   -31.8410     3.2910 c          1 QJO       0.731000
      2 C13        -44.5490   -31.1360     1.9090 c5         1 QJO       0.073500
      3 C12        -43.6850   -31.8330     0.8580 c5         1 QJO      -0.122400
      4 C10        -42.3670   -31.1170     0.9960 c5         1 QJO       0.173000
      5 C19        -45.5910   -28.6550     4.5060 ca         1 QJO       0.283400
      6 C02        -47.6280   -29.2180     5.3130 ca         1 QJO       0.428900
      7 C04        -47.4020   -29.1510     3.0620 ca         1 QJO       0.283400
      8 C05        -46.0750   -28.7770     3.2040 ca         1 QJO      -0.460500
      9 C09        -42.7260   -29.6590     1.2300 c5         1 QJO       0.169800
     10 F11        -41.6720   -31.6040     2.0680 f          1 QJO      -0.118000
     11 F17        -41.5480   -31.2720    -0.0760 f          1 QJO      -0.118000
     12 N03        -48.1810   -29.3750     4.1000 nb         1 QJO      -0.273500
     13 N08        -43.9990   -29.7670     1.9430 n3         1 QJO      -0.723500
     14 N20        -46.3530   -28.8550     5.5520 nb         1 QJO      -0.273500
     15 O15        -44.1930   -31.1780     4.2840 o          1 QJO      -0.705500
     16 O16        -44.8850   -33.0320     3.2440 o          1 QJO      -0.705500
     17 S06        -45.0350   -28.4990     1.8340 sy         1 QJO       1.205600
     18 H131       -45.5860   -31.1270     1.5630 h1         1 QJO       0.048700
     19 H122       -43.6120   -32.9080     1.0070 hc         1 QJO       0.071200
     20 H121       -44.0750   -31.6480    -0.1460 hc         1 QJO       0.071200
     21 H041       -47.8470   -29.2780     2.0820 h4         1 QJO       0.041100
     22 H092       -42.8180   -29.1600     0.2610 h1         1 QJO       0.061200
     23 H091       -41.9700   -29.1390     1.8180 h1         1 QJO       0.061200
     24 H012       -49.3600   -29.7230     6.2540 hn         1 QJO       0.500500
     25 H011       -48.0340   -29.3510     7.3030 hn         1 QJO       0.500500
     26 N01        -48.4040   -29.4360     6.3720 nv         1 QJO      -1.069900
     27 O07        -44.2300   -27.3020     2.0450 o          1 QJO      -0.587000
     28 O18        -45.8610   -28.5540     0.6320 o          1 QJO      -0.587000
     29 H191       -44.5640   -28.3660     4.6940 h4         1 QJO       0.041100
@<TRIPOS>BOND
     1     1     2 1   
     2     1    15 1   
     3     1    16 1   
     4     2     3 1   
     5     2    13 1   
     6     2    18 1   
     7     3     4 1   
     8     3    19 1   
     9     3    20 1   
    10     4     9 1   
    11     4    10 1   
    12     4    11 1   
    13     5     8 ar  
    14     5    14 ar  
    15     5    29 1   
    16     6    12 ar  
    17     6    14 ar  
    18     6    26 1   
    19     7     8 ar  
    20     7    12 ar  
    21     7    21 1   
    22     8    17 1   
    23     9    13 1   
    24     9    22 1   
    25     9    23 1   
    26    13    17 1   
    27    17    27 2   
    28    17    28 2   
    29    24    26 1   
    30    25    26 1   
@<TRIPOS>SUBSTRUCTURE
     1 QJO         1 TEMP              0 ****  ****    0 ROOT
