@<TRIPOS>MOLECULE
QJO
   29    30     1     0     0
SMALL
No Charge or Current Charge


@<TRIPOS>ATOM
      1 C14        -45.6120   -31.7580     2.4560 c          1 QJO       0.731000
      2 C13        -44.4690   -31.1320     1.5470 c5         1 QJO       0.073500
      3 C12        -43.1200   -31.8720     1.7710 c5         1 QJO      -0.122400
      4 C10        -42.1400   -30.9830     0.9620 c5         1 QJO       0.173000
      5 C19        -45.4630   -28.7960     4.5510 ca         1 QJO       0.283400
      6 C02        -47.4800   -29.2790     5.4920 ca         1 QJO       0.428900
      7 C04        -47.4530   -29.0450     3.2260 ca         1 QJO       0.283400
      8 C05        -46.0810   -28.7860     3.2980 ca         1 QJO      -0.460500
      9 C09        -42.8010   -29.5650     0.9900 c5         1 QJO       0.169800
     10 F11        -40.8710   -30.9740     1.5410 f          1 QJO      -0.118000
     11 F17        -42.0100   -31.4480    -0.3460 f          1 QJO      -0.118000
     12 N03        -48.1670   -29.2940     4.3410 nb         1 QJO      -0.273500
     13 N08        -44.0230   -29.7250     1.8210 n3         1 QJO      -0.723500
     14 N20        -46.1730   -29.0450     5.6680 nb         1 QJO      -0.273500
     15 O15        -45.3650   -32.1110     3.6040 o          1 QJO      -0.705500
     16 O16        -46.7130   -31.9530     1.9550 o          1 QJO      -0.705500
     17 S06        -45.1400   -28.4440     1.8530 sy         1 QJO       1.205600
     18 H131       -44.7960   -31.2350     0.5020 h1         1 QJO       0.048700
     19 H122       -42.8440   -31.8940     2.8320 hc         1 QJO       0.071200
     20 H121       -43.1440   -32.9080     1.4160 hc         1 QJO       0.071200
     21 H041       -47.9980   -29.0520     2.2830 h4         1 QJO       0.041100
     22 H092       -43.0560   -29.2440    -0.0300 h1         1 QJO       0.061200
     23 H091       -42.1240   -28.8100     1.4130 h1         1 QJO       0.061200
     24 H012       -49.1220   -29.9340     6.5100 hn         1 QJO       0.500500
     25 H011       -47.6930   -29.7560     7.4670 hn         1 QJO       0.500500
     26 N01        -48.1970   -29.5240     6.6150 nv         1 QJO      -1.069900
     27 O07        -44.3490   -27.2430     2.1400 o          1 QJO      -0.587000
     28 O18        -45.9740   -28.5490     0.6520 o          1 QJO      -0.587000
     29 H191       -44.3980   -28.6040     4.6740 h4         1 QJO       0.041100
@<TRIPOS>BOND
     1     1     2 1   
     2     1    15 1   
     3     1    16 1   
     4     2     3 1   
     5     2    13 1   
     6     2    18 1   
     7     3     4 1   
     8     3    19 1   
     9     3    20 1   
    10     4     9 1   
    11     4    10 1   
    12     4    11 1   
    13     5     8 ar  
    14     5    14 ar  
    15     5    29 1   
    16     6    12 ar  
    17     6    14 ar  
    18     6    26 1   
    19     7     8 ar  
    20     7    12 ar  
    21     7    21 1   
    22     8    17 1   
    23     9    13 1   
    24     9    22 1   
    25     9    23 1   
    26    13    17 1   
    27    17    27 2   
    28    17    28 2   
    29    24    26 1   
    30    25    26 1   
@<TRIPOS>SUBSTRUCTURE
     1 QJO         1 TEMP              0 ****  ****    0 ROOT
