@<TRIPOS>MOLECULE
QJP
   44    47     1     0     0
SMALL
No Charge or Current Charge


@<TRIPOS>ATOM
      1 O1           1.9880     2.8880    -1.7530 o          1 QJP      -0.613100
      2 C7           0.0980     1.4010    -1.5950 cx         1 QJP      -0.240700
      3 O2          -3.8370     0.5880     1.4000 os         1 QJP      -0.442000
      4 C6           1.5460     1.7900    -1.4490 c          1 QJP       0.627100
      5 C1           6.4620    -1.3910     1.0240 c3         1 QJP      -0.064100
      6 N1           2.3270     0.7890    -0.9360 ns         1 QJP      -0.504900
      7 C5           3.7480     0.9160    -0.6400 c3         1 QJP       0.136000
      8 C4           4.2550    -0.3620     0.0110 cx         1 QJP      -0.154700
      9 C3           3.9660    -0.6580     1.4660 cx         1 QJP      -0.135400
     10 C2           5.3740    -0.3260     1.0270 cx         1 QJP      -0.099700
     11 C11         -2.0510    -1.2920    -1.4430 c2         1 QJP       0.705100
     12 C8          -0.9680     2.4770    -1.7470 cx         1 QJP      -0.069400
     13 C14         -2.9800    -0.5590     1.6330 c5         1 QJP       0.151600
     14 C15         -3.1680     1.5060     0.4860 c5         1 QJP       0.164600
     15 C12         -0.5130    -1.1740     0.9270 c6         1 QJP       0.074600
     16 C9          -0.8360     1.7270    -0.4370 cx         1 QJP      -0.089700
     17 C13         -1.5790    -0.1020     1.1430 c5         1 QJP      -0.132700
     18 C10         -1.9740     0.6980    -0.1280 c5         1 QJP       0.171200
     19 N2          -2.5060    -0.1070    -1.2940 n2         1 QJP      -0.697900
     20 S1          -0.9540    -2.2830    -0.4540 ss         1 QJP      -0.394200
     21 H1          -0.0620     0.4890    -2.1600 hc         1 QJP       0.085700
     22 H2           7.2560    -1.1320     0.3130 hc         1 QJP       0.039033
     23 H3           6.9170    -1.4830     2.0180 hc         1 QJP       0.039033
     24 H4           6.0640    -2.3730     0.7440 hc         1 QJP       0.039033
     25 H5           1.8700    -0.0900    -0.7370 hn         1 QJP       0.314500
     26 H6           4.2980     1.1050    -1.5710 h1         1 QJP       0.053700
     27 H7           3.8980     1.7710     0.0340 h1         1 QJP       0.053700
     28 H8           4.2340    -1.2090    -0.6710 hc         1 QJP       0.084700
     29 H9           3.4280     0.0910     2.0440 hc         1 QJP       0.072700
     30 H10          3.7430    -1.6870     1.7380 hc         1 QJP       0.072700
     31 H11          5.7550     0.6540     1.3110 hc         1 QJP       0.079700
     32 H12         -0.6540     3.5180    -1.7620 hc         1 QJP       0.090700
     33 H13         -1.8180     2.2630    -2.3900 hc         1 QJP       0.090700
     34 H14         -2.9920    -0.8280     2.6980 h1         1 QJP       0.055200
     35 H15         -3.3650    -1.4100     1.0550 h1         1 QJP       0.055200
     36 H16         -3.8740     1.8700    -0.2710 h1         1 QJP       0.060700
     37 H17         -2.8160     2.3680     1.0680 h1         1 QJP       0.060700
     38 H18          0.4450    -0.6960     0.6820 h1         1 QJP       0.076700
     39 H19         -0.3670    -1.7760     1.8360 h1         1 QJP       0.076700
     40 H20         -0.4190     2.2920     0.3950 hc         1 QJP       0.098700
     41 H21         -1.1460     0.5590     1.9050 hc         1 QJP       0.076700
     42 H22         -1.7770    -2.7510    -2.7390 hn         1 QJP       0.470500
     43 H23         -2.7900    -1.4750    -3.2560 hn         1 QJP       0.470500
     44 N3          -2.4480    -2.0380    -2.4890 nv         1 QJP      -1.006200
@<TRIPOS>BOND
     1     1     4 2   
     2     2     4 1   
     3     2    12 1   
     4     2    16 1   
     5     2    21 1   
     6     3    13 1   
     7     3    14 1   
     8     4     6 1   
     9     5    10 1   
    10     5    22 1   
    11     5    23 1   
    12     5    24 1   
    13     6     7 1   
    14     6    25 1   
    15     7     8 1   
    16     7    26 1   
    17     7    27 1   
    18     8     9 1   
    19     8    10 1   
    20     8    28 1   
    21     9    10 1   
    22     9    29 1   
    23     9    30 1   
    24    10    31 1   
    25    11    19 2   
    26    11    20 1   
    27    11    44 1   
    28    12    16 1   
    29    12    32 1   
    30    12    33 1   
    31    13    17 1   
    32    13    34 1   
    33    13    35 1   
    34    14    18 1   
    35    14    36 1   
    36    14    37 1   
    37    15    17 1   
    38    15    20 1   
    39    15    38 1   
    40    15    39 1   
    41    16    18 1   
    42    16    40 1   
    43    17    18 1   
    44    17    41 1   
    45    18    19 1   
    46    42    44 1   
    47    43    44 1   
@<TRIPOS>SUBSTRUCTURE
     1 QJP         1 TEMP              0 ****  ****    0 ROOT
