@<TRIPOS>MOLECULE
QJP
   44    47     1     0     0
SMALL
abcg2


@<TRIPOS>ATOM
      1 O1           1.7310     2.8540    -0.4030 o          1 QJP      -0.613100
      2 C7           0.2370     1.1740    -1.1980 cx         1 QJP      -0.240700
      3 O2          -4.2940     0.7160     0.7320 os         1 QJP      -0.442000
      4 C6           1.5420     1.6780    -0.6930 c          1 QJP       0.627100
      5 C1           7.0670    -1.0530     0.4300 c3         1 QJP      -0.064100
      6 N1           2.4940     0.7410    -0.5640 ns         1 QJP      -0.504900
      7 C5           3.8140     1.0130    -0.0310 c3         1 QJP       0.136000
      8 C4           4.6810    -0.2060    -0.1670 cx         1 QJP      -0.154700
      9 C3           4.5030    -1.3460     0.7990 cx         1 QJP      -0.135400
     10 C2           5.7350    -0.4950     0.8550 cx         1 QJP      -0.099700
     11 C11         -2.2370    -1.4220    -1.1910 c2         1 QJP       0.705100
     12 C8          -0.6770     2.1020    -1.9490 cx         1 QJP      -0.069400
     13 C14         -3.4770    -0.0080     1.6410 c5         1 QJP       0.151600
     14 C15         -3.4680     1.5630    -0.0340 c5         1 QJP       0.164600
     15 C12         -1.1300    -1.0200     1.2790 c6         1 QJP       0.074600
     16 C9          -1.0170     1.7110    -0.5580 cx         1 QJP      -0.089700
     17 C13         -2.0250     0.1970     1.1890 c5         1 QJP      -0.132700
     18 C10         -2.1650     0.7820    -0.2270 c5         1 QJP       0.171200
     19 N2          -2.3630    -0.1660    -1.2900 n2         1 QJP      -0.697900
     20 S1          -1.7120    -2.3660     0.2190 ss         1 QJP      -0.394200
     21 H1           0.2120     0.1350    -1.5090 hc         1 QJP       0.085700
     22 H2           7.7410    -0.2610     0.0990 hc         1 QJP       0.039033
     23 H3           7.5540    -1.5820     1.2500 hc         1 QJP       0.039033
     24 H4           6.9550    -1.7580    -0.3960 hc         1 QJP       0.039033
     25 H5           2.2690    -0.2160    -0.7830 hn         1 QJP       0.314500
     26 H6           4.2590     1.8550    -0.5660 h1         1 QJP       0.053700
     27 H7           3.7440     1.3060     1.0210 h1         1 QJP       0.053700
     28 H8           4.9250    -0.4780    -1.1900 hc         1 QJP       0.084700
     29 H9           3.7630    -1.2320     1.5830 hc         1 QJP       0.072700
     30 H10          4.5950    -2.3570     0.4210 hc         1 QJP       0.072700
     31 H11          5.7840     0.2030     1.6850 hc         1 QJP       0.079700
     32 H12         -0.3330     3.1140    -2.1200 hc         1 QJP       0.090700
     33 H13         -1.2430     1.6620    -2.7590 hc         1 QJP       0.090700
     34 H14         -3.6170     0.3570     2.6640 h1         1 QJP       0.055200
     35 H15         -3.7750    -1.0600     1.6200 h1         1 QJP       0.055200
     36 H16         -3.9600     1.7910    -0.9800 h1         1 QJP       0.060700
     37 H17         -3.2680     2.5100     0.4890 h1         1 QJP       0.060700
     38 H18         -0.1050    -0.7620     1.0120 h1         1 QJP       0.076700
     39 H19         -1.1120    -1.4260     2.2900 h1         1 QJP       0.076700
     40 H20         -0.8550     2.4780     0.1940 hc         1 QJP       0.098700
     41 H21         -1.5630     0.9660     1.8150 hc         1 QJP       0.076700
     42 H22         -2.0830    -3.1130    -2.3230 hn         1 QJP       0.470500
     43 H23         -2.7590    -1.7760    -3.0980 hn         1 QJP       0.470500
     44 N3          -2.5870    -2.2460    -2.2220 nv         1 QJP      -1.006200
@<TRIPOS>BOND
     1     1     4 2   
     2     2     4 1   
     3     2    12 1   
     4     2    16 1   
     5     2    21 1   
     6     3    13 1   
     7     3    14 1   
     8     4     6 1   
     9     5    10 1   
    10     5    22 1   
    11     5    23 1   
    12     5    24 1   
    13     6     7 1   
    14     6    25 1   
    15     7     8 1   
    16     7    26 1   
    17     7    27 1   
    18     8     9 1   
    19     8    10 1   
    20     8    28 1   
    21     9    10 1   
    22     9    29 1   
    23     9    30 1   
    24    10    31 1   
    25    11    19 2   
    26    11    20 1   
    27    11    44 1   
    28    12    16 1   
    29    12    32 1   
    30    12    33 1   
    31    13    17 1   
    32    13    34 1   
    33    13    35 1   
    34    14    18 1   
    35    14    36 1   
    36    14    37 1   
    37    15    17 1   
    38    15    20 1   
    39    15    38 1   
    40    15    39 1   
    41    16    18 1   
    42    16    40 1   
    43    17    18 1   
    44    17    41 1   
    45    18    19 1   
    46    42    44 1   
    47    43    44 1   
@<TRIPOS>SUBSTRUCTURE
     1 QJP         1 TEMP              0 ****  ****    0 ROOT
