@<TRIPOS>MOLECULE
QJQ
   48    51     1     0     0
SMALL
No Charge or Current Charge


@<TRIPOS>ATOM
      1 C02         13.6000    -5.1660   -19.9660 ce         1 QJQ      -0.264400
      2 C04         12.8420    -5.1230   -18.8000 cf         1 QJQ      -0.022400
      3 C05         11.3570    -5.5880   -18.8050 c6         1 QJQ      -0.056200
      4 C06         10.7130    -5.6580   -20.2030 c6         1 QJQ      -0.076400
      5 C07         11.6580    -6.3690   -21.1780 c6         1 QJQ      -0.069400
      6 C11         15.0970    -4.9400   -20.0230 c          1 QJQ       0.621300
      7 C13         16.8650    -4.2420   -21.6710 cc         1 QJQ       0.045600
      8 C15         16.1860    -3.7210   -24.0300 cd         1 QJQ       0.602900
      9 C17         14.8360    -3.4760   -26.0720 cd         1 QJQ      -0.301000
     10 C18         14.1420    -3.7880   -24.9390 cc         1 QJQ       0.326300
     11 C20         12.6590    -3.9910   -24.8510 c3         1 QJQ      -0.120400
     12 C21         13.3280    -4.5780   -17.4590 c          1 QJQ       0.709200
     13 C22         19.3350    -3.8740   -21.9660 cc         1 QJQ      -0.299300
     14 C23         18.6240    -3.6070   -23.1190 cd         1 QJQ      -0.037300
     15 C24         19.3360    -3.1300   -24.3850 c6         1 QJQ      -0.012100
     16 C25         20.8150    -2.7230   -24.1540 c6         1 QJQ      -0.115400
     17 C26         21.5300    -3.6970   -23.1990 c6         1 QJQ       0.172000
     18 C27         20.8390    -3.7620   -21.8200 c6         1 QJQ      -0.029100
     19 N01         15.5670    -4.5200   -21.2520 ns         1 QJQ      -0.384100
     20 O03         15.8460    -5.1640   -19.0850 o          1 QJQ      -0.549100
     21 C08         12.9520    -5.5520   -21.3200 c6         1 QJQ      -0.023200
     22 O09         12.7220    -4.9090   -16.4460 o          1 QJQ      -0.705000
     23 O10         14.1880    -3.7090   -17.4330 o          1 QJQ      -0.705000
     24 S12         18.2950    -4.3580   -20.6410 ss         1 QJQ       0.330000
     25 C14         17.2000    -3.8460   -22.9680 cd         1 QJQ      -0.312500
     26 S16         16.5440    -3.3400   -25.7240 ss         1 QJQ      -0.087400
     27 N19         14.8880    -3.9280   -23.8010 nc         1 QJQ      -0.727000
     28 F28         22.8680    -3.2950   -23.0350 f          1 QJQ      -0.130500
     29 F29         21.5700    -4.9810   -23.7750 f          1 QJQ      -0.130500
     30 H9          10.7530    -4.9210   -18.1750 hc         1 QJQ       0.063700
     31 H10         11.3060    -6.5800   -18.3360 hc         1 QJQ       0.063700
     32 H13         10.4940    -4.6450   -20.5680 hc         1 QJQ       0.028700
     33 H14          9.7530    -6.1890   -20.1480 hc         1 QJQ       0.028700
     34 H17         11.1770    -6.4830   -22.1590 hc         1 QJQ       0.027700
     35 H18         11.8860    -7.3810   -20.8140 hc         1 QJQ       0.027700
     36 H40         14.4510    -3.3230   -27.0730 h4         1 QJQ       0.149000
     37 H43         12.4250    -5.0140   -24.5370 hc         1 QJQ       0.048367
     38 H41         12.2140    -3.3000   -24.1260 hc         1 QJQ       0.048367
     39 H42         12.1800    -3.8170   -25.8210 hc         1 QJQ       0.048367
     40 H44         19.3040    -3.9220   -25.1450 hc         1 QJQ       0.058200
     41 H45         18.8290    -2.2530   -24.8060 hc         1 QJQ       0.058200
     42 H46         21.3440    -2.6690   -25.1150 hc         1 QJQ       0.062200
     43 H47         20.8490    -1.7130   -23.7230 hc         1 QJQ       0.062200
     44 H49         21.0900    -2.8570   -21.2490 hc         1 QJQ       0.071700
     45 H48         21.2450    -4.6060   -21.2450 hc         1 QJQ       0.071700
     46 H28         14.8410    -4.4000   -21.9520 hn         1 QJQ       0.372500
     47 H34         12.7330    -4.6340   -21.8810 hc         1 QJQ       0.029700
     48 H35         13.6510    -6.1360   -21.9350 hc         1 QJQ       0.029700
@<TRIPOS>BOND
     1     1     2 2   
     2     1     6 1   
     3     1    21 1   
     4     2     3 1   
     5     2    12 1   
     6     3     4 1   
     7     3    30 1   
     8     3    31 1   
     9     4     5 1   
    10     4    32 1   
    11     4    33 1   
    12     5    21 1   
    13     5    34 1   
    14     5    35 1   
    15     6    19 1   
    16     6    20 2   
    17     7    19 1   
    18     7    24 1   
    19     7    25 2   
    20     8    25 1   
    21     8    26 1   
    22     8    27 2   
    23     9    10 2   
    24     9    26 1   
    25     9    36 1   
    26    10    11 1   
    27    10    27 1   
    28    11    37 1   
    29    11    38 1   
    30    11    39 1   
    31    12    22 1   
    32    12    23 1   
    33    13    14 2   
    34    13    18 1   
    35    13    24 1   
    36    14    15 1   
    37    14    25 1   
    38    15    16 1   
    39    15    40 1   
    40    15    41 1   
    41    16    17 1   
    42    16    42 1   
    43    16    43 1   
    44    17    18 1   
    45    17    28 1   
    46    17    29 1   
    47    18    44 1   
    48    18    45 1   
    49    19    46 1   
    50    21    47 1   
    51    21    48 1   
@<TRIPOS>SUBSTRUCTURE
     1 QJQ         1 TEMP              0 ****  ****    0 ROOT
