@<TRIPOS>MOLECULE
QJQ
   48    51     1     0     0
SMALL
abcg2


@<TRIPOS>ATOM
      1 C02         13.5940    -5.1630   -20.0460 ce         1 QJQ      -0.264400
      2 C04         13.0240    -5.2610   -18.8290 cf         1 QJQ      -0.022400
      3 C05         11.5410    -5.4750   -18.6510 c6         1 QJQ      -0.056200
      4 C06         10.7190    -5.2430   -19.9140 c6         1 QJQ      -0.076400
      5 C07         11.4050    -5.8960   -21.1060 c6         1 QJQ      -0.069400
      6 C11         15.0460    -4.9030   -20.1670 c          1 QJQ       0.621300
      7 C13         16.7560    -4.2390   -21.7830 cc         1 QJQ       0.045600
      8 C15         16.2070    -3.8690   -24.1720 cd         1 QJQ       0.602900
      9 C17         14.9760    -3.8110   -26.2930 cd         1 QJQ      -0.301000
     10 C18         14.2080    -4.0320   -25.1890 cc         1 QJQ       0.326300
     11 C20         12.7290    -4.2390   -25.1630 c3         1 QJQ      -0.120400
     12 C21         13.7450    -5.1640   -17.4960 c          1 QJQ       0.709200
     13 C22         19.1830    -3.7830   -21.9260 cc         1 QJQ      -0.299300
     14 C23         18.5720    -3.6220   -23.1320 cd         1 QJQ      -0.037300
     15 C24         19.3490    -3.2260   -24.3570 c6         1 QJQ      -0.012100
     16 C25         20.7580    -2.7240   -24.0180 c6         1 QJQ      -0.115400
     17 C26         21.4090    -3.5700   -22.9530 c6         1 QJQ       0.172000
     18 C27         20.6450    -3.6000   -21.6470 c6         1 QJQ      -0.029100
     19 N01         15.4660    -4.5350   -21.4210 ns         1 QJQ      -0.384100
     20 O03         15.8620    -4.9860   -19.2460 o          1 QJQ      -0.549100
     21 C08         12.7870    -5.2860   -21.3260 c6         1 QJQ      -0.023200
     22 O09         14.0460    -6.2540   -16.9530 o          1 QJQ      -0.705000
     23 O10         13.8630    -4.0140   -17.0080 o          1 QJQ      -0.705000
     24 S12         18.0820    -4.2530   -20.6680 ss         1 QJQ       0.330000
     25 C14         17.1540    -3.8950   -23.0740 cd         1 QJQ      -0.312500
     26 S16         16.6310    -3.6360   -25.8550 ss         1 QJQ      -0.087400
     27 N19         14.9130    -4.0600   -24.0120 nc         1 QJQ      -0.727000
     28 F28         22.6980    -3.1260   -22.7210 f          1 QJQ      -0.130500
     29 F29         21.5620    -4.8670   -23.4260 f          1 QJQ      -0.130500
     30 H9          11.1940    -4.8270   -17.8400 hc         1 QJQ       0.063700
     31 H10         11.3970    -6.5010   -18.2920 hc         1 QJQ       0.063700
     32 H13         10.6200    -4.1680   -20.0980 hc         1 QJQ       0.028700
     33 H14          9.7100    -5.6390   -19.7760 hc         1 QJQ       0.028700
     34 H17         10.8090    -5.7830   -22.0140 hc         1 QJQ       0.027700
     35 H18         11.5070    -6.9700   -20.9190 hc         1 QJQ       0.027700
     36 H40         14.6630    -3.7410   -27.3220 h4         1 QJQ       0.149000
     37 H43         12.4880    -5.2150   -24.7360 hc         1 QJQ       0.048367
     38 H41         12.2460    -3.4820   -24.5410 hc         1 QJQ       0.048367
     39 H42         12.3120    -4.1850   -26.1680 hc         1 QJQ       0.048367
     40 H44         19.4170    -4.0780   -25.0400 hc         1 QJQ       0.058200
     41 H45         18.8300    -2.4350   -24.9010 hc         1 QJQ       0.058200
     42 H46         21.3910    -2.7240   -24.9060 hc         1 QJQ       0.062200
     43 H47         20.7120    -1.7030   -23.6330 hc         1 QJQ       0.062200
     44 H49         20.8340    -2.6570   -21.1270 hc         1 QJQ       0.071700
     45 H48         21.0430    -4.4040   -21.0240 hc         1 QJQ       0.071700
     46 H28         14.8100    -4.4400   -22.2010 hn         1 QJQ       0.372500
     47 H34         12.6730    -4.2980   -21.7890 hc         1 QJQ       0.029700
     48 H35         13.3340    -5.8970   -22.0470 hc         1 QJQ       0.029700
@<TRIPOS>BOND
     1     1     2 2   
     2     1     6 1   
     3     1    21 1   
     4     2     3 1   
     5     2    12 1   
     6     3     4 1   
     7     3    30 1   
     8     3    31 1   
     9     4     5 1   
    10     4    32 1   
    11     4    33 1   
    12     5    21 1   
    13     5    34 1   
    14     5    35 1   
    15     6    19 1   
    16     6    20 2   
    17     7    19 1   
    18     7    24 1   
    19     7    25 2   
    20     8    25 1   
    21     8    26 1   
    22     8    27 2   
    23     9    10 2   
    24     9    26 1   
    25     9    36 1   
    26    10    11 1   
    27    10    27 1   
    28    11    37 1   
    29    11    38 1   
    30    11    39 1   
    31    12    22 1   
    32    12    23 1   
    33    13    14 2   
    34    13    18 1   
    35    13    24 1   
    36    14    15 1   
    37    14    25 1   
    38    15    16 1   
    39    15    40 1   
    40    15    41 1   
    41    16    17 1   
    42    16    42 1   
    43    16    43 1   
    44    17    18 1   
    45    17    28 1   
    46    17    29 1   
    47    18    44 1   
    48    18    45 1   
    49    19    46 1   
    50    21    47 1   
    51    21    48 1   
@<TRIPOS>SUBSTRUCTURE
     1 QJQ         1 TEMP              0 ****  ****    0 ROOT
