@<TRIPOS>MOLECULE
QJR
   33    35     1     0     0
SMALL
abcg2


@<TRIPOS>ATOM
      1 N1         -16.5080     4.7140    26.6210 nb         1 QJR      -0.653000
      2 C4         -22.2730     5.7120    27.8620 c3         1 QJR      -0.110100
      3 C5         -20.8440     6.1810    27.6170 c          1 QJR       0.599100
      4 C6         -18.7490     5.5980    26.4910 ca         1 QJR      -0.083000
      5 C7         -17.8410     4.6360    26.8600 ca         1 QJR       0.322900
      6 C8         -16.0560     5.7860    26.0100 ca         1 QJR       0.375900
      7 C10        -16.3910     7.9740    24.8950 ca         1 QJR       0.375900
      8 C13        -18.2860     6.7510    25.8070 ca         1 QJR       0.025000
      9 C15        -22.1710     2.8990    30.4100 ca         1 QJR       0.124000
     10 CL1        -21.8910     1.1820    30.3960 cl         1 QJR      -0.176000
     11 C          -22.4290     3.5790    31.5990 ca         1 QJR       0.128000
     12 CL         -22.4870     2.7440    33.1230 cl         1 QJR      -0.172000
     13 C14        -22.1370     3.5910    29.2060 ca         1 QJR      -0.097000
     14 C3         -22.3570     4.9650    29.1720 ca         1 QJR      -0.077300
     15 C2         -22.6130     5.6380    30.3660 ca         1 QJR      -0.077000
     16 C1         -22.6500     4.9510    31.5700 ca         1 QJR      -0.092000
     17 O          -20.3790     7.1660    28.1730 o          1 QJR      -0.568100
     18 N          -20.1260     5.4050    26.7610 ns         1 QJR      -0.165000
     19 C12        -19.0940     7.7980    25.3140 ca         1 QJR      -0.132000
     20 C11        -18.4950     8.8420    24.6610 ca         1 QJR       0.336900
     21 N2         -17.1530     8.9470    24.4520 nb         1 QJR      -0.660000
     22 C9         -16.8910     6.8390    25.5760 ca         1 QJR      -0.155000
     23 H1         -22.9000     6.6020    27.8960 hc         1 QJR       0.074200
     24 H2         -22.6120     5.0780    27.0430 hc         1 QJR       0.074200
     25 H3         -18.1870     3.7480    27.3760 h4         1 QJR       0.024100
     26 H4         -14.9860     5.8490    25.8320 h4         1 QJR       0.027100
     27 H5         -15.3220     8.0550    24.7210 h4         1 QJR       0.024100
     28 H6         -21.9370     3.0470    28.2930 ha         1 QJR       0.124000
     29 H7         -22.7880     6.7050    30.3560 ha         1 QJR       0.133000
     30 H8         -22.8540     5.4740    32.4950 ha         1 QJR       0.137000
     31 H9         -20.5440     4.5450    26.4370 hn         1 QJR       0.157000
     32 H10        -20.1660     7.7800    25.4440 ha         1 QJR       0.132000
     33 H11        -19.0940     9.6570    24.2710 h4         1 QJR       0.023100
@<TRIPOS>BOND
     1     1     5 ar  
     2     1     6 ar  
     3     2     3 1   
     4     2    14 1   
     5     2    23 1   
     6     2    24 1   
     7     3    17 2   
     8     3    18 1   
     9     4     5 ar  
    10     4     8 ar  
    11     4    18 1   
    12     5    25 1   
    13     6    22 ar  
    14     6    26 1   
    15     7    21 ar  
    16     7    22 ar  
    17     7    27 1   
    18     8    19 ar  
    19     8    22 ar  
    20     9    10 1   
    21     9    11 ar  
    22     9    13 ar  
    23    11    12 1   
    24    11    16 ar  
    25    13    14 ar  
    26    13    28 1   
    27    14    15 ar  
    28    15    16 ar  
    29    15    29 1   
    30    16    30 1   
    31    18    31 1   
    32    19    20 ar  
    33    19    32 1   
    34    20    21 ar  
    35    20    33 1   
@<TRIPOS>SUBSTRUCTURE
     1 QJR         1 TEMP              0 ****  ****    0 ROOT
