@<TRIPOS>MOLECULE
QJR
   33    35     1     0     0
SMALL
No Charge or Current Charge


@<TRIPOS>ATOM
      1 N1         -16.4200     4.6440    26.3440 nb         1 QJR      -0.653000
      2 C4         -22.2530     5.6130    27.8380 c3         1 QJR      -0.110100
      3 C5         -20.8360     6.1600    27.6330 c          1 QJR       0.599100
      4 C6         -18.6690     5.5820    26.4320 ca         1 QJR      -0.083000
      5 C7         -17.7330     4.5520    26.6610 ca         1 QJR       0.322900
      6 C8         -15.9890     5.7890    25.7670 ca         1 QJR       0.375900
      7 C10        -16.3590     8.0170    24.8520 ca         1 QJR       0.375900
      8 C13        -18.2140     6.7650    25.8000 ca         1 QJR       0.025000
      9 C15        -22.2460     2.8890    30.5480 ca         1 QJR       0.124000
     10 Cl1        -21.9440     1.1530    30.6430 cl         1 QJR      -0.176000
     11 C          -22.5860     3.6340    31.6960 ca         1 QJR       0.128000
     12 Cl         -22.7260     2.8610    33.2760 cl         1 QJR      -0.172000
     13 C14        -22.1410     3.5310    29.3010 ca         1 QJR      -0.097000
     14 C3         -22.3740     4.9170    29.1910 ca         1 QJR      -0.077300
     15 C2         -22.7130     5.6550    30.3410 ca         1 QJR      -0.077000
     16 C1         -22.8180     5.0150    31.5890 ca         1 QJR      -0.092000
     17 O          -20.4550     7.1970    28.1660 o          1 QJR      -0.568100
     18 N          -20.0170     5.3750    26.8360 ns         1 QJR      -0.165000
     19 C12        -19.0420     7.8480    25.4430 ca         1 QJR      -0.132000
     20 C11        -18.4710     8.9690    24.8180 ca         1 QJR       0.336900
     21 N2         -17.1520     9.0640    24.5270 nb         1 QJR      -0.660000
     22 C9         -16.8480     6.8590    25.4760 ca         1 QJR      -0.155000
     23 H1         -22.9600     6.4490    27.7910 hc         1 QJR       0.074200
     24 H2         -22.4900     4.8960    27.0420 hc         1 QJR       0.074200
     25 H3         -18.0440     3.6200    27.1330 h4         1 QJR       0.024100
     26 H4         -14.9290     5.8380    25.5220 h4         1 QJR       0.027100
     27 H5         -15.3040     8.1130    24.5960 h4         1 QJR       0.024100
     28 H6         -21.8770     2.9470    28.4230 ha         1 QJR       0.124000
     29 H7         -22.8910     6.7270    30.2710 ha         1 QJR       0.133000
     30 H8         -23.0790     5.5900    32.4740 ha         1 QJR       0.137000
     31 H9         -20.4310     4.5090    26.5140 hn         1 QJR       0.157000
     32 H10        -20.1110     7.8390    25.6240 ha         1 QJR       0.132000
     33 H11        -19.0910     9.8190    24.5360 h4         1 QJR       0.023100
@<TRIPOS>BOND
     1     1     5 ar  
     2     1     6 ar  
     3     2     3 1   
     4     2    14 1   
     5     2    23 1   
     6     2    24 1   
     7     3    17 2   
     8     3    18 1   
     9     4     5 ar  
    10     4     8 ar  
    11     4    18 1   
    12     5    25 1   
    13     6    22 ar  
    14     6    26 1   
    15     7    21 ar  
    16     7    22 ar  
    17     7    27 1   
    18     8    19 ar  
    19     8    22 ar  
    20     9    10 1   
    21     9    11 ar  
    22     9    13 ar  
    23    11    12 1   
    24    11    16 ar  
    25    13    14 ar  
    26    13    28 1   
    27    14    15 ar  
    28    15    16 ar  
    29    15    29 1   
    30    16    30 1   
    31    18    31 1   
    32    19    20 ar  
    33    19    32 1   
    34    20    21 ar  
    35    20    33 1   
@<TRIPOS>SUBSTRUCTURE
     1 QJR         1 TEMP              0 ****  ****    0 ROOT
