@<TRIPOS>MOLECULE
QJS
   39    42     1     0     0
SMALL
No Charge or Current Charge


@<TRIPOS>ATOM
      1 C2          -3.5990     2.2160    -1.9150 ca         1 QJS       0.098000
      2 C3          -2.4150     1.5350    -1.5670 ca         1 QJS      -0.076000
      3 C13          0.4020    -0.4690    -1.3790 c          1 QJS       0.623100
      4 C15          1.8730    -0.8030    -1.3680 cx         1 QJS      -0.201700
      5 C17          2.8380     0.2000    -0.7590 cx         1 QJS      -0.076400
      6 C19          2.8120    -0.0120    -2.2570 cx         1 QJS      -0.094400
      7 C22          4.0000    -0.2320     0.1030 ca         1 QJS      -0.033300
      8 C23          4.3550     0.5420     1.2280 ca         1 QJS      -0.106000
      9 C25          5.4320     0.1620     2.0470 ca         1 QJS      -0.112500
     10 C27          6.1670    -0.9970     1.7510 ca         1 QJS      -0.122000
     11 C29          5.8230    -1.7760     0.6350 ca         1 QJS      -0.112500
     12 F1          -3.6340     2.9620    -3.0410 f          1 QJS      -0.209000
     13 C5          -2.4220     0.7640    -0.3910 ca         1 QJS      -0.071800
     14 C6          -3.5260     0.7250     0.4240 ca         1 QJS      -0.080200
     15 N7          -3.2440    -0.0150     1.5610 na         1 QJS      -0.181700
     16 C9          -1.9100    -0.4800     1.5310 cc         1 QJS      -0.138300
     17 C10         -1.4190    -0.0290     0.3050 cd         1 QJS      -0.020600
     18 N11         -0.1330    -0.3430    -0.1150 ns         1 QJS      -0.363100
     19 O14         -0.2340    -0.3790    -2.4190 o          1 QJS      -0.637100
     20 C31          4.7460    -1.3970    -0.1850 ca         1 QJS      -0.106000
     21 C33         -1.1750    -1.2830     2.5520 c          1 QJS       0.735200
     22 O34         -1.7810    -1.6060     3.5640 o          1 QJS      -0.713500
     23 O35         -0.0010    -1.5760     2.3630 o          1 QJS      -0.713500
     24 C37         -4.7130     1.3970     0.1030 ca         1 QJS      -0.112000
     25 C39         -4.7460     2.1430    -1.0930 ca         1 QJS      -0.152000
     26 H1          -1.5320     1.6410    -2.1870 ha         1 QJS       0.143000
     27 H2           2.0940    -1.8590    -1.2390 hc         1 QJS       0.099700
     28 H3           2.4070     1.1400    -0.4180 hc         1 QJS       0.098700
     29 H4           3.6430    -0.5400    -2.7180 hc         1 QJS       0.077200
     30 H5           2.3910     0.7820    -2.8690 hc         1 QJS       0.077200
     31 H6           3.7950     1.4420     1.4700 ha         1 QJS       0.114000
     32 H7           5.6960     0.7670     2.9120 ha         1 QJS       0.105000
     33 H8           7.0000    -1.2910     2.3860 ha         1 QJS       0.103000
     34 H9           6.3910    -2.6750     0.4050 ha         1 QJS       0.105000
     35 H10         -3.8950    -0.1850     2.3220 hn         1 QJS       0.365000
     36 H11          0.5050    -0.6680     0.6060 hn         1 QJS       0.368500
     37 H12          4.4970    -2.0150    -1.0430 ha         1 QJS       0.114000
     38 H14         -5.5800     1.3540     0.7590 ha         1 QJS       0.102000
     39 H15         -5.6490     2.6800    -1.3740 ha         1 QJS       0.107000
@<TRIPOS>BOND
     1     1     2 ar  
     2     1    12 1   
     3     1    25 ar  
     4     2    13 ar  
     5     2    26 1   
     6     3     4 1   
     7     3    18 1   
     8     3    19 2   
     9     4     5 1   
    10     4     6 1   
    11     4    27 1   
    12     5     6 1   
    13     5     7 1   
    14     5    28 1   
    15     6    29 1   
    16     6    30 1   
    17     7     8 ar  
    18     7    20 ar  
    19     8     9 ar  
    20     8    31 1   
    21     9    10 ar  
    22     9    32 1   
    23    10    11 ar  
    24    10    33 1   
    25    11    20 ar  
    26    11    34 1   
    27    13    14 ar  
    28    13    17 1   
    29    14    15 1   
    30    14    24 ar  
    31    15    16 1   
    32    15    35 1   
    33    16    17 2   
    34    16    21 1   
    35    17    18 1   
    36    18    36 1   
    37    20    37 1   
    38    21    22 1   
    39    21    23 1   
    40    24    25 ar  
    41    24    38 1   
    42    25    39 1   
@<TRIPOS>SUBSTRUCTURE
     1 QJS         1 TEMP              0 ****  ****    0 ROOT
