@<TRIPOS>MOLECULE
QJS
   39    42     1     0     0
SMALL
abcg2


@<TRIPOS>ATOM
      1 C2          -3.1030     2.9290    -0.9490 ca         1 QJS       0.098000
      2 C3          -2.0920     2.0250    -0.7590 ca         1 QJS      -0.076000
      3 C13          0.5200    -0.3370    -0.8180 c          1 QJS       0.623100
      4 C15          1.8800    -0.9230    -0.6610 cx         1 QJS      -0.201700
      5 C17          3.0660    -0.0420    -1.0080 cx         1 QJS      -0.076400
      6 C19          2.6930    -1.1820    -1.8920 cx         1 QJS      -0.094400
      7 C22          4.2830    -0.0560    -0.1610 ca         1 QJS      -0.033300
      8 C23          4.8970     1.1530     0.1660 ca         1 QJS      -0.106000
      9 C25          6.0410     1.1850     0.9530 ca         1 QJS      -0.112500
     10 C27          6.5900     0.0040     1.4330 ca         1 QJS      -0.122000
     11 C29          5.9850    -1.2060     1.1170 ca         1 QJS      -0.112500
     12 F1          -2.8140     4.1090    -1.5400 f          1 QJS      -0.209000
     13 C5          -2.4170     0.8040    -0.1420 ca         1 QJS      -0.071800
     14 C6          -3.7570     0.5810     0.2630 ca         1 QJS      -0.080200
     15 N7          -3.8200    -0.6310     0.8700 na         1 QJS      -0.181700
     16 C9          -2.5830    -1.2070     0.8850 cc         1 QJS      -0.138300
     17 C10         -1.6920    -0.3620     0.2580 cd         1 QJS      -0.020600
     18 N11         -0.3310    -0.6650     0.1760 ns         1 QJS      -0.363100
     19 O14          0.2310     0.3910    -1.7570 o          1 QJS      -0.637100
     20 C31          4.8440    -1.2360     0.3290 ca         1 QJS      -0.106000
     21 C33         -2.3440    -2.5230     1.5590 c          1 QJS       0.735200
     22 O34         -3.3450    -3.0970     2.0200 o          1 QJS      -0.713500
     23 O35         -1.1540    -2.9110     1.6010 o          1 QJS      -0.713500
     24 C37         -4.7670     1.5190     0.0460 ca         1 QJS      -0.112000
     25 C39         -4.4310     2.7050    -0.5700 ca         1 QJS      -0.152000
     26 H1          -1.0870     2.2510    -1.0800 ha         1 QJS       0.143000
     27 H2           2.0230    -1.6040     0.1710 hc         1 QJS       0.099700
     28 H3           2.7960     0.9400    -1.3800 hc         1 QJS       0.098700
     29 H4           3.3210    -2.0640    -1.8930 hc         1 QJS       0.077200
     30 H5           2.2450    -0.9450    -2.8480 hc         1 QJS       0.077200
     31 H6           4.4750     2.0810    -0.2010 ha         1 QJS       0.114000
     32 H7           6.5020     2.1360     1.1880 ha         1 QJS       0.105000
     33 H8           7.4820     0.0250     2.0460 ha         1 QJS       0.103000
     34 H9           6.4050    -2.1340     1.4830 ha         1 QJS       0.105000
     35 H10         -4.6260    -1.0350     1.3170 hn         1 QJS       0.365000
     36 H11         -0.0880    -1.4480     0.7790 hn         1 QJS       0.368500
     37 H12          4.3980    -2.1950     0.0940 ha         1 QJS       0.114000
     38 H14         -5.7860     1.3260     0.3550 ha         1 QJS       0.102000
     39 H15         -5.1810     3.4610    -0.7600 ha         1 QJS       0.107000
@<TRIPOS>BOND
     1     1     2 ar  
     2     1    12 1   
     3     1    25 ar  
     4     2    13 ar  
     5     2    26 1   
     6     3     4 1   
     7     3    18 1   
     8     3    19 2   
     9     4     5 1   
    10     4     6 1   
    11     4    27 1   
    12     5     6 1   
    13     5     7 1   
    14     5    28 1   
    15     6    29 1   
    16     6    30 1   
    17     7     8 ar  
    18     7    20 ar  
    19     8     9 ar  
    20     8    31 1   
    21     9    10 ar  
    22     9    32 1   
    23    10    11 ar  
    24    10    33 1   
    25    11    20 ar  
    26    11    34 1   
    27    13    14 ar  
    28    13    17 1   
    29    14    15 1   
    30    14    24 ar  
    31    15    16 1   
    32    15    35 1   
    33    16    17 2   
    34    16    21 1   
    35    17    18 1   
    36    18    36 1   
    37    20    37 1   
    38    21    22 1   
    39    21    23 1   
    40    24    25 ar  
    41    24    38 1   
    42    25    39 1   
@<TRIPOS>SUBSTRUCTURE
     1 QJS         1 TEMP              0 ****  ****    0 ROOT
