@<TRIPOS>MOLECULE
QJT
   56    58     1     0     0
SMALL
No Charge or Current Charge


@<TRIPOS>ATOM
      1 N1          21.1910    20.1540    -4.7230 n3         1 QJT      -0.717600
      2 C4          21.2950    16.2920    -2.5560 c3         1 QJT      -0.070400
      3 C5          20.8620    17.4360    -3.5230 c6         1 QJT      -0.061700
      4 C6          21.9220    17.7430    -4.6160 c6         1 QJT      -0.073400
      5 C7          21.4840    18.9240    -5.5170 c6         1 QJT       0.167300
      6 C8          20.1430    19.8860    -3.7000 c6         1 QJT       0.167300
      7 C10         20.8520    21.3340    -5.5560 c3         1 QJT       0.171800
      8 C13         22.5480    23.4800    -9.4850 c          1 QJT       0.571000
      9 C15         25.0530    23.6950    -9.8070 c6         1 QJT      -0.026100
     10 C17         25.1300    24.1640    -8.3580 ca         1 QJT      -0.124300
     11 C20         26.4230    25.1460    -6.5410 ca         1 QJT      -0.132000
     12 C21         26.3440    24.6740    -7.8580 ca         1 QJT      -0.079000
     13 C1          23.0760    13.8840    -1.4250 c3         1 QJT      -0.089100
     14 O1          21.5640    22.9380    -9.9770 o          1 QJT      -0.545000
     15 C2          21.7590    13.7550    -2.2190 c3         1 QJT      -0.074400
     16 N2          22.7250    23.6360    -8.0850 n          1 QJT      -0.223400
     17 C3          21.5000    14.9070    -3.2190 c3         1 QJT      -0.073400
     18 C9          20.5510    18.7400    -2.7440 c6         1 QJT      -0.073400
     19 C11         21.9890    21.8260    -6.4770 c3         1 QJT      -0.098400
     20 C12         21.6440    23.1550    -7.1810 c3         1 QJT       0.091000
     21 C14         23.6640    24.0020   -10.3920 c6         1 QJT      -0.158400
     22 C16         23.9910    24.0670    -7.5210 ca         1 QJT      -0.011000
     23 C18         24.0720    24.6150    -6.2180 ca         1 QJT      -0.147000
     24 C19         25.2830    25.1290    -5.7250 ca         1 QJT      -0.084000
     25 H2          22.2210    16.5830    -2.0450 hc         1 QJT       0.039200
     26 H3          20.5360    16.1830    -1.7710 hc         1 QJT       0.039200
     27 H4          19.9380    17.1000    -4.0150 hc         1 QJT       0.042700
     28 H5          22.0890    16.8610    -5.2480 hc         1 QJT       0.046200
     29 H6          22.8860    17.9810    -4.1470 hc         1 QJT       0.046200
     30 H7          20.5960    18.6250    -6.0940 h1         1 QJT       0.029450
     31 H8          22.2910    19.1090    -6.2400 h1         1 QJT       0.029450
     32 H9          19.9580    20.7900    -3.1010 h1         1 QJT       0.029450
     33 H10         19.1930    19.6240    -4.1900 h1         1 QJT       0.029450
     34 H11         20.5820    22.1690    -4.8940 h1         1 QJT       0.027700
     35 H12         19.9680    21.1170    -6.1720 h1         1 QJT       0.027700
     36 H13         25.2480    22.6150    -9.8540 hc         1 QJT       0.058200
     37 H14         25.8270    24.1820   -10.4170 hc         1 QJT       0.058200
     38 H15         27.3610    25.5450    -6.1600 ha         1 QJT       0.117000
     39 H16         27.2240    24.7170    -8.4970 ha         1 QJT       0.113000
     40 H17         23.2320    12.9950    -0.8020 hc         1 QJT       0.031033
     41 H18         23.9310    13.9800    -2.1040 hc         1 QJT       0.031033
     42 H19         23.0550    14.7590    -0.7650 hc         1 QJT       0.031033
     43 H20         20.9190    13.6840    -1.5170 hc         1 QJT       0.036200
     44 H21         21.7810    12.8100    -2.7760 hc         1 QJT       0.036200
     45 H22         20.6060    14.6610    -3.8050 hc         1 QJT       0.037200
     46 H23         22.3370    14.9540    -3.9260 hc         1 QJT       0.037200
     47 H24         21.4300    19.0490    -2.1610 hc         1 QJT       0.046200
     48 H25         19.7420    18.5640    -2.0210 hc         1 QJT       0.046200
     49 H26         22.2020    21.0740    -7.2440 hc         1 QJT       0.058700
     50 H27         22.9010    21.9530    -5.8810 hc         1 QJT       0.058700
     51 H28         21.4260    23.9260    -6.4320 h1         1 QJT       0.060200
     52 H29         20.7110    23.0200    -7.7420 h1         1 QJT       0.060200
     53 H30         23.5720    25.0950   -10.3880 hc         1 QJT       0.076200
     54 H31         23.5340    23.6420   -11.4210 hc         1 QJT       0.076200
     55 H32         23.2070    24.6420    -5.5620 ha         1 QJT       0.120000
     56 H33         25.3350    25.5220    -4.7120 ha         1 QJT       0.114000
@<TRIPOS>BOND
     1     1     5 1   
     2     1     6 1   
     3     1     7 1   
     4     2     3 1   
     5     2    17 1   
     6     2    25 1   
     7     2    26 1   
     8     3     4 1   
     9     3    18 1   
    10     3    27 1   
    11     4     5 1   
    12     4    28 1   
    13     4    29 1   
    14     5    30 1   
    15     5    31 1   
    16     6    18 1   
    17     6    32 1   
    18     6    33 1   
    19     7    19 1   
    20     7    34 1   
    21     7    35 1   
    22     8    14 2   
    23     8    16 1   
    24     8    21 1   
    25     9    10 1   
    26     9    21 1   
    27     9    36 1   
    28     9    37 1   
    29    10    12 ar  
    30    10    22 ar  
    31    11    12 ar  
    32    11    24 ar  
    33    11    38 1   
    34    12    39 1   
    35    13    15 1   
    36    13    40 1   
    37    13    41 1   
    38    13    42 1   
    39    15    17 1   
    40    15    43 1   
    41    15    44 1   
    42    16    20 1   
    43    16    22 1   
    44    17    45 1   
    45    17    46 1   
    46    18    47 1   
    47    18    48 1   
    48    19    20 1   
    49    19    49 1   
    50    19    50 1   
    51    20    51 1   
    52    20    52 1   
    53    21    53 1   
    54    21    54 1   
    55    22    23 ar  
    56    23    24 ar  
    57    23    55 1   
    58    24    56 1   
@<TRIPOS>SUBSTRUCTURE
     1 QJT         1 TEMP              0 ****  ****    0 ROOT
