@<TRIPOS>MOLECULE
QJT
   56    58     1     0     0
SMALL
abcg2


@<TRIPOS>ATOM
      1 N1          21.3340    20.1170    -4.7660 n3         1 QJT      -0.717600
      2 C4          21.3830    16.3920    -2.5540 c3         1 QJT      -0.070400
      3 C5          20.9060    17.5250    -3.4590 c6         1 QJT      -0.061700
      4 C6          21.7640    17.6930    -4.7100 c6         1 QJT      -0.073400
      5 C7          21.3200    18.8870    -5.5400 c6         1 QJT       0.167300
      6 C8          20.4550    20.0000    -3.6140 c6         1 QJT       0.167300
      7 C10         20.9940    21.2760    -5.5690 c3         1 QJT       0.171800
      8 C13         22.6800    23.2890    -9.5020 c          1 QJT       0.571000
      9 C15         25.1460    23.6340    -9.6430 c6         1 QJT      -0.026100
     10 C17         25.0920    24.1960    -8.2580 ca         1 QJT      -0.124300
     11 C20         26.1160    25.3230    -6.3780 ca         1 QJT      -0.132000
     12 C21         26.1810    24.8220    -7.6710 ca         1 QJT      -0.079000
     13 C1          23.0780    13.8870    -1.7240 c3         1 QJT      -0.089100
     14 O1          21.7270    22.7330   -10.0180 o          1 QJT      -0.545000
     15 C2          21.6380    13.8680    -2.2230 c3         1 QJT      -0.074400
     16 N2          22.7820    23.4480    -8.1440 n          1 QJT      -0.223400
     17 C3          21.3000    15.0050    -3.1830 c3         1 QJT      -0.073400
     18 C9          20.8770    18.8540    -2.7110 c6         1 QJT      -0.073400
     19 C11         22.0970    21.6890    -6.5350 c3         1 QJT      -0.098400
     20 C12         21.7050    22.9480    -7.2980 c3         1 QJT       0.091000
     21 C14         23.8080    23.8630   -10.3200 c6         1 QJT      -0.158400
     22 C16         23.8920    24.0820    -7.5450 ca         1 QJT      -0.011000
     23 C18         23.8280    24.5800    -6.2440 ca         1 QJT      -0.147000
     24 C19         24.9330    25.1930    -5.6690 ca         1 QJT      -0.084000
     25 H2          22.4100    16.6040    -2.2390 hc         1 QJT       0.039200
     26 H3          20.7790    16.3980    -1.6390 hc         1 QJT       0.039200
     27 H4          19.8800    17.2990    -3.7840 hc         1 QJT       0.042700
     28 H5          21.7220    16.7990    -5.3360 hc         1 QJT       0.046200
     29 H6          22.8110    17.8240    -4.4140 hc         1 QJT       0.046200
     30 H7          20.3110    18.6890    -5.9470 h1         1 QJT       0.029450
     31 H8          21.9850    18.9900    -6.3980 h1         1 QJT       0.029450
     32 H9          20.4860    20.9390    -3.0560 h1         1 QJT       0.029450
     33 H10         19.4040    19.8510    -3.9230 h1         1 QJT       0.029450
     34 H11         20.8120    22.1120    -4.8870 h1         1 QJT       0.027700
     35 H12         20.0520    21.1240    -6.1250 h1         1 QJT       0.027700
     36 H13         25.3610    22.5610    -9.6040 hc         1 QJT       0.058200
     37 H14         25.9510    24.0940   -10.2170 hc         1 QJT       0.058200
     38 H15         26.9760    25.8040    -5.9340 ha         1 QJT       0.117000
     39 H16         27.0990    24.9120    -8.2410 ha         1 QJT       0.113000
     40 H17         23.2910    13.0170    -1.1030 hc         1 QJT       0.031033
     41 H18         23.7810    13.8790    -2.5590 hc         1 QJT       0.031033
     42 H19         23.2910    14.7740    -1.1250 hc         1 QJT       0.031033
     43 H20         20.9540    13.8980    -1.3680 hc         1 QJT       0.036200
     44 H21         21.4500    12.9160    -2.7260 hc         1 QJT       0.036200
     45 H22         20.2870    14.8530    -3.5690 hc         1 QJT       0.037200
     46 H23         21.9660    14.9440    -4.0500 hc         1 QJT       0.037200
     47 H24         21.8730    19.0650    -2.3050 hc         1 QJT       0.046200
     48 H25         20.1930    18.7960    -1.8590 hc         1 QJT       0.046200
     49 H26         22.3080    20.8990    -7.2590 hc         1 QJT       0.058700
     50 H27         23.0160    21.8560    -5.9670 hc         1 QJT       0.058700
     51 H28         21.3870    23.7350    -6.6130 h1         1 QJT       0.060200
     52 H29         20.8490    22.7440    -7.9370 h1         1 QJT       0.060200
     53 H30         23.6300    24.9370   -10.4420 hc         1 QJT       0.076200
     54 H31         23.7720    23.4130   -11.3110 hc         1 QJT       0.076200
     55 H32         22.9250    24.5060    -5.6550 ha         1 QJT       0.120000
     56 H33         24.8560    25.5740    -4.6590 ha         1 QJT       0.114000
@<TRIPOS>BOND
     1     1     5 1   
     2     1     6 1   
     3     1     7 1   
     4     2     3 1   
     5     2    17 1   
     6     2    25 1   
     7     2    26 1   
     8     3     4 1   
     9     3    18 1   
    10     3    27 1   
    11     4     5 1   
    12     4    28 1   
    13     4    29 1   
    14     5    30 1   
    15     5    31 1   
    16     6    18 1   
    17     6    32 1   
    18     6    33 1   
    19     7    19 1   
    20     7    34 1   
    21     7    35 1   
    22     8    14 2   
    23     8    16 1   
    24     8    21 1   
    25     9    10 1   
    26     9    21 1   
    27     9    36 1   
    28     9    37 1   
    29    10    12 ar  
    30    10    22 ar  
    31    11    12 ar  
    32    11    24 ar  
    33    11    38 1   
    34    12    39 1   
    35    13    15 1   
    36    13    40 1   
    37    13    41 1   
    38    13    42 1   
    39    15    17 1   
    40    15    43 1   
    41    15    44 1   
    42    16    20 1   
    43    16    22 1   
    44    17    45 1   
    45    17    46 1   
    46    18    47 1   
    47    18    48 1   
    48    19    20 1   
    49    19    49 1   
    50    19    50 1   
    51    20    51 1   
    52    20    52 1   
    53    21    53 1   
    54    21    54 1   
    55    22    23 ar  
    56    23    24 ar  
    57    23    55 1   
    58    24    56 1   
@<TRIPOS>SUBSTRUCTURE
     1 QJT         1 TEMP              0 ****  ****    0 ROOT
