@<TRIPOS>MOLECULE
QJU
   46    50     1     0     0
SMALL
No Charge or Current Charge


@<TRIPOS>ATOM
      1 C18        -49.9870   -28.5140     3.6130 ca         1 QJU      -0.173000
      2 C16        -50.0190   -29.2140     5.9680 ca         1 QJU      -0.174000
      3 C17        -50.6980   -28.8260     4.7960 ca         1 QJU       0.190000
      4 C15        -48.6260   -29.2900     5.8980 ca         1 QJU       0.008800
      5 C14        -47.9020   -29.0110     4.7460 cp         1 QJU      -0.066000
      6 C13        -46.4830   -29.1800     5.0610 cp         1 QJU      -0.211000
      7 C12        -45.3020   -29.0510     4.2960 ca         1 QJU       0.411900
      8 C10        -45.7330   -29.8950     2.0050 c6         1 QJU       0.201800
      9 C19        -48.5760   -28.5960     3.5800 ca         1 QJU      -0.041000
     10 C02        -44.3220   -24.5410    -2.3600 cc         1 QJU       0.565300
     11 C05        -43.6380   -25.8550    -0.9210 cd         1 QJU       0.501300
     12 C06        -43.3280   -26.5760     0.3630 c3         1 QJU      -0.110700
     13 C07        -44.5060   -27.4200     0.9410 c6         1 QJU      -0.069700
     14 C08        -44.9400   -28.5560    -0.0240 c6         1 QJU      -0.075400
     15 C09        -46.0980   -29.3680     0.5950 c6         1 QJU      -0.080400
     16 C22        -46.3610   -29.5230     6.4120 ca         1 QJU       0.189500
     17 C24        -44.0990   -29.5500     6.2120 ca         1 QJU       0.177900
     18 C26        -44.1470   -28.0080     2.3340 c6         1 QJU       0.210800
     19 F20        -52.0450   -28.7340     4.8070 f          1 QJU      -0.182000
     20 N03        -43.6940   -25.4410    -3.0960 nd         1 QJU      -0.375300
     21 N11        -45.2750   -28.8010     2.9060 nh         1 QJU      -0.760300
     22 N21        -47.6800   -29.6000     6.8820 na         1 QJU      -0.331300
     23 N23        -45.1770   -29.7130     7.0120 nb         1 QJU      -0.225000
     24 N25        -44.1020   -29.2370     4.8930 nb         1 QJU      -0.280000
     25 N27        -44.3240   -24.7370    -1.0130 nc         1 QJU      -0.729000
     26 O04        -43.2200   -26.3480    -2.1210 os         1 QJU      -0.115700
     27 H181       -50.5310   -28.2000     2.7260 ha         1 QJU       0.135000
     28 H161       -50.5580   -29.4360     6.8840 ha         1 QJU       0.139000
     29 H102       -46.6120   -30.4020     2.4320 h1         1 QJU       0.050200
     30 H101       -44.9400   -30.6510     1.9090 h1         1 QJU       0.050200
     31 H191       -48.0280   -28.3300     2.6830 ha         1 QJU       0.127000
     32 H013       -44.9210   -23.3240    -4.0300 hc         1 QJU       0.065367
     33 H012       -46.0790   -23.3580    -2.6860 hc         1 QJU       0.065367
     34 H011       -44.5780   -22.4200    -2.5420 hc         1 QJU       0.065367
     35 H061       -43.0140   -25.8310     1.1050 hc         1 QJU       0.077700
     36 H062       -42.4540   -27.2190     0.2060 hc         1 QJU       0.077700
     37 H071       -45.3510   -26.7290     1.0740 hc         1 QJU       0.080700
     38 H082       -45.2590   -28.1430    -0.9910 hc         1 QJU       0.048200
     39 H081       -44.0890   -29.2210    -0.2300 hc         1 QJU       0.048200
     40 H091       -46.9960   -28.7380     0.6540 hc         1 QJU       0.053700
     41 H092       -46.3560   -30.2120    -0.0580 hc         1 QJU       0.053700
     42 H241       -43.1250   -29.6960     6.6740 h5         1 QJU       0.050100
     43 H261       -43.8940   -27.1770     3.0090 h1         1 QJU       0.056200
     44 H262       -43.2510   -28.6400     2.2400 h1         1 QJU       0.056200
     45 H211       -47.9140   -29.8460     7.8360 hn         1 QJU       0.370000
     46 C01        -45.0130   -23.3450    -2.9380 c3         1 QJU      -0.125400
@<TRIPOS>BOND
     1     1     3 ar  
     2     1     9 ar  
     3     1    27 1   
     4     2     3 ar  
     5     2     4 ar  
     6     2    28 1   
     7     3    19 1   
     8     4     5 ar  
     9     4    22 1   
    10     5     6 1   
    11     5     9 ar  
    12     6     7 ar  
    13     6    16 ar  
    14     7    21 1   
    15     7    24 ar  
    16     8    15 1   
    17     8    21 1   
    18     8    29 1   
    19     8    30 1   
    20     9    31 1   
    21    10    20 2   
    22    10    25 1   
    23    10    46 1   
    24    11    12 1   
    25    11    25 2   
    26    11    26 1   
    27    12    13 1   
    28    12    35 1   
    29    12    36 1   
    30    13    14 1   
    31    13    18 1   
    32    13    37 1   
    33    14    15 1   
    34    14    38 1   
    35    14    39 1   
    36    15    40 1   
    37    15    41 1   
    38    16    22 1   
    39    16    23 ar  
    40    17    23 ar  
    41    17    24 ar  
    42    17    42 1   
    43    18    21 1   
    44    18    43 1   
    45    18    44 1   
    46    20    26 1   
    47    22    45 1   
    48    32    46 1   
    49    33    46 1   
    50    34    46 1   
@<TRIPOS>SUBSTRUCTURE
     1 QJU         1 TEMP              0 ****  ****    0 ROOT
