@<TRIPOS>MOLECULE
QJU
   46    50     1     0     0
SMALL
abcg2


@<TRIPOS>ATOM
      1 C18        -50.1690   -28.8790     3.7820 ca         1 QJU      -0.173000
      2 C16        -49.9220   -29.6160     6.1010 ca         1 QJU      -0.174000
      3 C17        -50.6930   -29.2880     5.0040 ca         1 QJU       0.190000
      4 C15        -48.5460   -29.5250     5.9270 ca         1 QJU       0.008800
      5 C14        -47.9530   -29.1450     4.6900 cp         1 QJU      -0.066000
      6 C13        -46.5220   -29.1480     4.9160 cp         1 QJU      -0.211000
      7 C12        -45.3460   -28.8590     4.1940 ca         1 QJU       0.411900
      8 C10        -46.0200   -29.5730     1.9590 c6         1 QJU       0.201800
      9 C19        -48.7910   -28.8060     3.6250 ca         1 QJU      -0.041000
     10 C02        -44.0400   -24.6160    -2.3740 cc         1 QJU       0.565300
     11 C05        -43.4200   -25.9700    -0.8890 cd         1 QJU       0.501300
     12 C06        -43.1720   -26.7700     0.3350 c3         1 QJU      -0.110700
     13 C07        -44.4640   -27.3490     0.9320 c6         1 QJU      -0.069700
     14 C08        -45.1740   -28.3030    -0.0300 c6         1 QJU      -0.075400
     15 C09        -46.3980   -28.9220     0.6390 c6         1 QJU      -0.080400
     16 C22        -46.3330   -29.4670     6.2800 ca         1 QJU       0.189500
     17 C24        -44.1480   -29.0810     6.1590 ca         1 QJU       0.177900
     18 C26        -44.1280   -28.0570     2.2450 c6         1 QJU       0.210800
     19 F20        -52.0450   -29.3530     5.1300 f          1 QJU      -0.182000
     20 N03        -43.2420   -25.4210    -3.0190 nd         1 QJU      -0.375300
     21 N11        -45.3400   -28.6140     2.8420 nh         1 QJU      -0.760300
     22 N21        -47.5450   -29.7320     6.8550 na         1 QJU      -0.331300
     23 N23        -45.1670   -29.4580     6.9290 nb         1 QJU      -0.225000
     24 N25        -44.1740   -28.7960     4.8580 nb         1 QJU      -0.280000
     25 N27        -44.1780   -24.9250    -1.0380 nc         1 QJU      -0.729000
     26 O04        -42.8190   -26.3340    -2.0280 os         1 QJU      -0.115700
     27 H181       -50.8400   -28.6190     2.9740 ha         1 QJU       0.135000
     28 H161       -50.3730   -29.9090     7.0390 ha         1 QJU       0.139000
     29 H102       -46.8920   -29.9770     2.4620 h1         1 QJU       0.050200
     30 H101       -45.3350   -30.4120     1.7730 h1         1 QJU       0.050200
     31 H191       -48.3860   -28.4660     2.6830 ha         1 QJU       0.127000
     32 H013       -44.4930   -23.4340    -4.0840 hc         1 QJU       0.065367
     33 H012       -45.8160   -23.5910    -2.9080 hc         1 QJU       0.065367
     34 H011       -44.4450   -22.5410    -2.5480 hc         1 QJU       0.065367
     35 H061       -42.6880   -26.1220     1.0700 hc         1 QJU       0.077700
     36 H062       -42.4740   -27.5730     0.0930 hc         1 QJU       0.077700
     37 H071       -45.1370   -26.5180     1.1620 hc         1 QJU       0.080700
     38 H082       -45.4640   -27.7820    -0.9450 hc         1 QJU       0.048200
     39 H081       -44.4760   -29.0970    -0.3200 hc         1 QJU       0.048200
     40 H091       -47.1490   -28.1480     0.8230 hc         1 QJU       0.053700
     41 H092       -46.8530   -29.6740    -0.0090 hc         1 QJU       0.053700
     42 H241       -43.1800   -29.0130     6.6420 h5         1 QJU       0.050100
     43 H261       -43.6850   -27.3560     2.9470 h1         1 QJU       0.056200
     44 H262       -43.3900   -28.8500     2.0560 h1         1 QJU       0.056200
     45 H211       -47.6840   -29.9330     7.8330 hn         1 QJU       0.370000
     46 C01        -44.7370   -23.4790    -3.0240 c3         1 QJU      -0.125400
@<TRIPOS>BOND
     1     1     3 ar  
     2     1     9 ar  
     3     1    27 1   
     4     2     3 ar  
     5     2     4 ar  
     6     2    28 1   
     7     3    19 1   
     8     4     5 ar  
     9     4    22 1   
    10     5     6 1   
    11     5     9 ar  
    12     6     7 ar  
    13     6    16 ar  
    14     7    21 1   
    15     7    24 ar  
    16     8    15 1   
    17     8    21 1   
    18     8    29 1   
    19     8    30 1   
    20     9    31 1   
    21    10    20 2   
    22    10    25 1   
    23    10    46 1   
    24    11    12 1   
    25    11    25 2   
    26    11    26 1   
    27    12    13 1   
    28    12    35 1   
    29    12    36 1   
    30    13    14 1   
    31    13    18 1   
    32    13    37 1   
    33    14    15 1   
    34    14    38 1   
    35    14    39 1   
    36    15    40 1   
    37    15    41 1   
    38    16    22 1   
    39    16    23 ar  
    40    17    23 ar  
    41    17    24 ar  
    42    17    42 1   
    43    18    21 1   
    44    18    43 1   
    45    18    44 1   
    46    20    26 1   
    47    22    45 1   
    48    32    46 1   
    49    33    46 1   
    50    34    46 1   
@<TRIPOS>SUBSTRUCTURE
     1 QJU         1 TEMP              0 ****  ****    0 ROOT
