@<TRIPOS>MOLECULE
QJV
   43    45     1     0     0
SMALL
abcg2


@<TRIPOS>ATOM
      1 O1          -2.0960    -2.4770    -0.7860 o          1 QJV      -0.612100
      2 C7           0.7030    -1.5220    -0.7130 cx         1 QJV      -0.085700
      3 O2           3.9700    -0.9840     0.8380 os         1 QJV      -0.440000
      4 C6          -0.4820    -0.8020    -1.3010 cx         1 QJV      -0.241700
      5 N1          -2.7540    -0.3200    -0.7580 ns         1 QJV      -0.505900
      6 C5          -1.8400    -1.2870    -0.9340 c          1 QJV       0.628100
      7 C4          -4.1330    -0.5730    -0.3970 c3         1 QJV       0.102000
      8 C3          -4.7780     0.6820     0.1690 c3         1 QJV      -0.095400
      9 C2          -6.2340     0.4570     0.5560 c3         1 QJV      -0.073400
     10 C8           1.8970    -0.7450    -0.2010 c5         1 QJV       0.173200
     11 N2           2.2130     0.3270    -1.1060 n2         1 QJV      -0.700900
     12 C9           2.2490     1.5580    -0.8160 c2         1 QJV       0.707100
     13 N3           2.7240     2.4770    -1.7070 nv         1 QJV      -1.007200
     14 S1           1.8100     2.3320     0.7210 ss         1 QJV      -0.392200
     15 C10          0.9750     0.9340     1.5080 c6         1 QJV       0.073600
     16 C11          1.7220    -0.3630     1.2820 c5         1 QJV      -0.132700
     17 C12          3.1500    -0.4130     1.8460 c5         1 QJV       0.150600
     18 C13          3.1280    -1.6470    -0.0760 c5         1 QJV       0.161600
     19 C14          0.4000    -1.6710    -2.1580 cx         1 QJV      -0.071400
     20 H2          -0.3740     0.2680    -1.4460 hc         1 QJV       0.085700
     21 H3          -6.8800     2.5240     0.3990 hc         1 QJV       0.033367
     22 H4          -7.9210     1.5270     1.4100 hc         1 QJV       0.033367
     23 H5          -6.3540     2.0570     2.0140 hc         1 QJV       0.033367
     24 H6          -2.4920     0.6310    -0.9620 hn         1 QJV       0.310500
     25 H7          -4.7010    -0.9230    -1.2660 h1         1 QJV       0.052700
     26 H8          -4.1630    -1.3720     0.3450 h1         1 QJV       0.052700
     27 H9          -4.2120     1.0160     1.0440 hc         1 QJV       0.041700
     28 H10         -4.7200     1.4890    -0.5700 hc         1 QJV       0.041700
     29 H11         -6.2940    -0.3510     1.2910 hc         1 QJV       0.042200
     30 H12         -6.7950     0.1160    -0.3190 hc         1 QJV       0.042200
     31 H13          2.8690     2.1240    -2.6410 hn         1 QJV       0.470500
     32 H14          2.3310     3.4040    -1.6810 hn         1 QJV       0.470500
     33 H15          0.9220     1.1790     2.5700 h1         1 QJV       0.077200
     34 H16         -0.0480     0.8610     1.1380 h1         1 QJV       0.077200
     35 H17          1.1250    -1.1490     1.7530 hc         1 QJV       0.075700
     36 H18          3.1790    -1.0180     2.7590 h1         1 QJV       0.055700
     37 H19          3.5390     0.5790     2.0890 h1         1 QJV       0.055700
     38 H20          3.6520    -1.7730    -1.0250 h1         1 QJV       0.061200
     39 H21          2.8340    -2.6400     0.2940 h1         1 QJV       0.061200
     40 H22          1.0270    -1.1580    -2.8730 hc         1 QJV       0.089700
     41 H23         -0.0070    -2.6170    -2.4920 hc         1 QJV       0.089700
     42 H1           0.4500    -2.3800    -0.0970 hc         1 QJV       0.099700
     43 C1          -6.8850     1.7100     1.1260 c3         1 QJV      -0.089100
@<TRIPOS>BOND
     1     1     6 2   
     2     2     4 1   
     3     2    10 1   
     4     2    19 1   
     5     2    42 1   
     6     3    17 1   
     7     3    18 1   
     8     4     6 1   
     9     4    19 1   
    10     4    20 1   
    11     5     6 1   
    12     5     7 1   
    13     5    24 1   
    14     7     8 1   
    15     7    25 1   
    16     7    26 1   
    17     8     9 1   
    18     8    27 1   
    19     8    28 1   
    20     9    29 1   
    21     9    30 1   
    22     9    43 1   
    23    10    11 1   
    24    10    16 1   
    25    10    18 1   
    26    11    12 2   
    27    12    13 1   
    28    12    14 1   
    29    13    31 1   
    30    13    32 1   
    31    14    15 1   
    32    15    16 1   
    33    15    33 1   
    34    15    34 1   
    35    16    17 1   
    36    16    35 1   
    37    17    36 1   
    38    17    37 1   
    39    18    38 1   
    40    18    39 1   
    41    19    40 1   
    42    19    41 1   
    43    21    43 1   
    44    22    43 1   
    45    23    43 1   
@<TRIPOS>SUBSTRUCTURE
     1 QJV         1 TEMP              0 ****  ****    0 ROOT
