@<TRIPOS>MOLECULE
QJV
   43    45     1     0     0
SMALL
No Charge or Current Charge


@<TRIPOS>ATOM
      1 O1          -2.3100    -2.2260    -2.1610 o          1 QJV      -0.612100
      2 C7           0.5570    -1.5690    -0.6290 cx         1 QJV      -0.085700
      3 O2           3.5960    -1.0760     1.4200 os         1 QJV      -0.440000
      4 C6          -0.3290    -0.9370    -1.6930 cx         1 QJV      -0.241700
      5 N1          -2.5360    -0.2970    -0.9680 ns         1 QJV      -0.505900
      6 C5          -1.8050    -1.2400    -1.6460 c          1 QJV       0.628100
      7 C4          -3.9790    -0.3650    -0.7490 c3         1 QJV       0.102000
      8 C3          -4.4220     0.5890     0.3760 c3         1 QJV      -0.095400
      9 C2          -5.9420     0.5420     0.6400 c3         1 QJV      -0.073400
     10 C8           1.7660    -0.7200    -0.1100 c5         1 QJV       0.173200
     11 N2           2.3870     0.2560    -1.0860 n2         1 QJV      -0.700900
     12 C9           2.0370     1.4820    -0.9930 c2         1 QJV       0.707100
     13 N3           2.5170     2.3850    -1.8640 nv         1 QJV      -1.007200
     14 S1           1.0070     2.3430     0.1740 ss         1 QJV      -0.392200
     15 C10          0.4380     1.0170     1.2920 c6         1 QJV       0.073600
     16 C11          1.4070    -0.1630     1.2940 c5         1 QJV      -0.132700
     17 C12          2.8280     0.0660     1.8760 c5         1 QJV       0.150600
     18 C13          2.8770    -1.7310     0.3340 c5         1 QJV       0.161600
     19 C14          0.6570    -2.0350    -2.0670 cx         1 QJV      -0.071400
     20 H2          -0.0910     0.0600    -2.0510 hc         1 QJV       0.085700
     21 H3          -6.1420     2.5340     1.5150 hc         1 QJV       0.033367
     22 H4          -7.4720     1.4270     1.9180 hc         1 QJV       0.033367
     23 H5          -5.8930     1.2400     2.7100 hc         1 QJV       0.033367
     24 H6          -2.0250     0.4960    -0.6030 hn         1 QJV       0.310500
     25 H7          -4.4910    -0.1010    -1.6840 h1         1 QJV       0.052700
     26 H8          -4.2540    -1.3950    -0.4830 h1         1 QJV       0.052700
     27 H9          -3.8860     0.3300     1.2980 hc         1 QJV       0.041700
     28 H10         -4.1330     1.6150     0.1120 hc         1 QJV       0.041700
     29 H11         -6.2340    -0.4830     0.9040 hc         1 QJV       0.042200
     30 H12         -6.4800     0.8000    -0.2800 hc         1 QJV       0.042200
     31 H13          2.8290     1.9500    -2.7220 hn         1 QJV       0.470500
     32 H14          1.9180     3.1910    -1.9790 hn         1 QJV       0.470500
     33 H15          0.3140     1.4300     2.3030 h1         1 QJV       0.077200
     34 H16         -0.5480     0.6820     0.9410 h1         1 QJV       0.077200
     35 H17          0.9040    -0.9250     1.9020 hc         1 QJV       0.075700
     36 H18          2.8370     0.1120     2.9730 h1         1 QJV       0.055700
     37 H19          3.2940     0.9820     1.4870 h1         1 QJV       0.055700
     38 H20          3.5700    -1.9910    -0.4770 h1         1 QJV       0.061200
     39 H21          2.4450    -2.6620     0.7260 h1         1 QJV       0.061200
     40 H22          1.5310    -1.7560    -2.6510 hc         1 QJV       0.089700
     41 H23          0.2680    -3.0230    -2.3010 hc         1 QJV       0.089700
     42 H1           0.0840    -2.2610     0.0660 hc         1 QJV       0.099700
     43 C1          -6.3880     1.4950     1.7660 c3         1 QJV      -0.089100
@<TRIPOS>BOND
     1     1     6 2   
     2     2     4 1   
     3     2    10 1   
     4     2    19 1   
     5     2    42 1   
     6     3    17 1   
     7     3    18 1   
     8     4     6 1   
     9     4    19 1   
    10     4    20 1   
    11     5     6 1   
    12     5     7 1   
    13     5    24 1   
    14     7     8 1   
    15     7    25 1   
    16     7    26 1   
    17     8     9 1   
    18     8    27 1   
    19     8    28 1   
    20     9    29 1   
    21     9    30 1   
    22     9    43 1   
    23    10    11 1   
    24    10    16 1   
    25    10    18 1   
    26    11    12 2   
    27    12    13 1   
    28    12    14 1   
    29    13    31 1   
    30    13    32 1   
    31    14    15 1   
    32    15    16 1   
    33    15    33 1   
    34    15    34 1   
    35    16    17 1   
    36    16    35 1   
    37    17    36 1   
    38    17    37 1   
    39    18    38 1   
    40    18    39 1   
    41    19    40 1   
    42    19    41 1   
    43    21    43 1   
    44    22    43 1   
    45    23    43 1   
@<TRIPOS>SUBSTRUCTURE
     1 QJV         1 TEMP              0 ****  ****    0 ROOT
