@<TRIPOS>MOLECULE
QJW
   30    30     1     0     0
SMALL
bcc


@<TRIPOS>ATOM
      1 N1          40.4830    16.9280    26.8630 n8         1 QJW      -0.902800
      2 C4          46.7070    14.3690    25.6930 ca         1 QJW      -0.106000
      3 C5          45.3610    14.6970    25.7050 ca         1 QJW      -0.141200
      4 C6          44.8180    15.6400    26.5750 ca         1 QJW       0.031700
      5 C7          43.3770    16.0750    26.5300 c3         1 QJW       0.192700
      6 C8          41.9910    17.2580    24.9350 c3         1 QJW       0.053100
      7 C10         40.6360    16.7440    25.4270 c3         1 QJW       0.012500
      8 C1          45.7010    16.2440    27.4630 ca         1 QJW      -0.124000
      9 C11         40.4010    15.2780    24.9880 c          1 QJW       0.926600
     10 C2          47.0470    15.9060    27.4980 ca         1 QJW      -0.124000
     11 C3          47.5540    14.9700    26.6100 ca         1 QJW      -0.172000
     12 C9          42.2560    18.7220    25.3750 c          1 QJW       0.911600
     13 O1          43.0770    16.3870    25.1940 os         1 QJW      -0.412600
     14 O2          43.3950    19.0170    25.7800 o          1 QJW      -0.867800
     15 O3          41.2880    19.4990    25.2320 o          1 QJW      -0.867800
     16 O4          40.5300    15.0530    23.7680 o          1 QJW      -0.857800
     17 O5          40.0660    14.4560    25.8650 o          1 QJW      -0.857800
     18 O6          43.5400    13.4110    25.2110 o          1 QJW      -0.196500
     19 O7          44.8530    13.9450    23.6100 o          1 QJW      -0.196500
     20 H1          40.0820    17.8370    27.0490 hn         1 QJW       0.323800
     21 H2          39.8370    16.2320    27.2090 hn         1 QJW       0.323800
     22 H4          47.0900    13.6370    24.9950 ha         1 QJW       0.133000
     23 H5          43.2550    16.9290    27.1970 h1         1 QJW       0.065200
     24 H6          42.7300    15.2810    26.9170 h1         1 QJW       0.065200
     25 H7          41.9350    17.2730    23.8410 h1         1 QJW       0.070700
     26 H8          39.8880    17.3270    24.8710 h1         1 QJW       0.022700
     27 H9          45.3230    17.0030    28.1360 ha         1 QJW       0.149000
     28 H10         47.7020    16.3890    28.2110 ha         1 QJW       0.110000
     29 H11         48.6030    14.7080    26.6230 ha         1 QJW       0.108000
     30 N2          44.5100    13.9750    24.7680 no         1 QJW       0.326200
@<TRIPOS>BOND
     1     1     7 1   
     2     1    20 1   
     3     1    21 1   
     4     2     3 ar  
     5     2    11 ar  
     6     2    22 1   
     7     3     4 ar  
     8     3    30 1   
     9     4     5 1   
    10     4     8 ar  
    11     5    13 1   
    12     5    23 1   
    13     5    24 1   
    14     6     7 1   
    15     6    12 1   
    16     6    13 1   
    17     6    25 1   
    18     7     9 1   
    19     7    26 1   
    20     8    10 ar  
    21     8    27 1   
    22     9    16 1   
    23     9    17 1   
    24    10    11 ar  
    25    10    28 1   
    26    11    29 1   
    27    12    14 1   
    28    12    15 1   
    29    18    30 1   
    30    19    30 1   
@<TRIPOS>SUBSTRUCTURE
     1 QJW         1 TEMP              0 ****  ****    0 ROOT
