@<TRIPOS>MOLECULE
QJW
   30    30     1     0     0
SMALL
No Charge or Current Charge


@<TRIPOS>ATOM
      1 N1          40.4690    16.6370    26.9570 n8         1 QJW      -1.013200
      2 C4          46.7490    14.2110    25.8400 ca         1 QJW      -0.088000
      3 C5          45.3790    14.5540    25.7930 ca         1 QJW      -0.141200
      4 C6          44.9020    15.6630    26.5430 ca         1 QJW       0.031700
      5 C7          43.4400    16.1190    26.4960 c3         1 QJW       0.215900
      6 C8          41.9410    17.3890    24.9520 c3         1 QJW       0.076300
      7 C10         40.6160    16.6960    25.4440 c3         1 QJW       0.012500
      8 C1          45.8140    16.3940    27.3340 ca         1 QJW      -0.106000
      9 C11         40.3490    15.3600    24.6250 c          1 QJW       0.716000
     10 C2          47.1720    16.0390    27.3830 ca         1 QJW      -0.106000
     11 C3          47.6390    14.9500    26.6350 ca         1 QJW      -0.154000
     12 C9          42.1130    18.8720    25.4630 c          1 QJW       0.701000
     13 O1          43.1170    16.5280    25.1460 os         1 QJW      -0.459000
     14 O2          43.1800    19.2320    25.9480 o          1 QJW      -0.762500
     15 O3          41.1800    19.6520    25.3090 o          1 QJW      -0.762500
     16 O4          40.3280    15.4210    23.4020 o          1 QJW      -0.752500
     17 O5          40.0660    14.3350    25.2350 o          1 QJW      -0.752500
     18 O6          43.4890    13.2150    25.5030 o          1 QJW      -0.386500
     19 O7          44.8580    13.4240    23.8170 o          1 QJW      -0.386500
     20 H1          40.3190    17.5850    27.3210 hn         1 QJW       0.379000
     21 H2          39.5980    16.1420    27.1830 hn         1 QJW       0.379000
     22 H4          47.1240    13.3640    25.2670 ha         1 QJW       0.115000
     23 H5          43.3020    16.9480    27.2030 h1         1 QJW       0.065200
     24 H6          42.7910    15.2990    26.8280 h1         1 QJW       0.065200
     25 H7          41.8190    17.5230    23.8700 h1         1 QJW       0.070700
     26 H8          39.7980    17.3530    25.1200 h1         1 QJW       0.022700
     27 H9          45.4690    17.2510    27.9090 ha         1 QJW       0.131000
     28 H10         47.8620    16.6140    27.9970 ha         1 QJW       0.092000
     29 H11         48.6920    14.6770    26.6710 ha         1 QJW       0.090000
     30 N2          44.4600    13.7430    24.9460 no         1 QJW       0.706200
@<TRIPOS>BOND
     1     1     7 1   
     2     1    20 1   
     3     1    21 1   
     4     2     3 ar  
     5     2    11 ar  
     6     2    22 1   
     7     3     4 ar  
     8     3    30 1   
     9     4     5 1   
    10     4     8 ar  
    11     5    13 1   
    12     5    23 1   
    13     5    24 1   
    14     6     7 1   
    15     6    12 1   
    16     6    13 1   
    17     6    25 1   
    18     7     9 1   
    19     7    26 1   
    20     8    10 ar  
    21     8    27 1   
    22     9    16 1   
    23     9    17 1   
    24    10    11 ar  
    25    10    28 1   
    26    11    29 1   
    27    12    14 1   
    28    12    15 1   
    29    18    30 1   
    30    19    30 1   
@<TRIPOS>SUBSTRUCTURE
     1 QJW         1 TEMP              0 ****  ****    0 ROOT
