@<TRIPOS>MOLECULE
QJX
   52    55     1     0     0
SMALL
No Charge or Current Charge


@<TRIPOS>ATOM
      1 C02          5.9770     7.1090    18.9020 ca         1 QJX       0.674900
      2 C04          3.7880     6.4180    19.6770 cp         1 QJX       0.054000
      3 C05          4.2240     6.7430    20.9910 ca         1 QJX      -0.166300
      4 C06          5.5410     7.2230    21.1610 ca         1 QJX       0.433300
      5 C07          6.1190     7.5600    22.5330 c3         1 QJX      -0.134700
      6 C10          3.7590     5.5050    23.1870 c3         1 QJX      -0.070400
      7 C11          4.8890     5.9350    24.1500 c3         1 QJX      -0.075400
      8 C13          4.3470     6.3590    17.2220 cc         1 QJX       0.482000
      9 C15          7.6490     6.0500    17.4030 c3         1 QJX       0.226300
     10 C16          7.9100     6.0810    15.8850 c3         1 QJX      -0.113100
     11 C17          9.0220     8.7400    18.2430 c3         1 QJX      -0.113100
     12 C18          7.5880     8.5840    17.7030 c3         1 QJX       0.226300
     13 C23          1.9860     4.6380    19.8650 ca         1 QJX      -0.154000
     14 C24          0.6850     4.1910    19.5800 ca         1 QJX       0.334400
     15 C26          0.1930     6.1340    18.4190 ca         1 QJX       0.334400
     16 C27          1.4730     6.6570    18.6640 ca         1 QJX      -0.154000
     17 N01          6.3950     7.3970    20.1370 nb         1 QJX      -0.759000
     18 C03          4.6990     6.6170    18.6100 ca         1 QJX      -0.271500
     19 C08          3.3020     6.6090    22.2110 c3         1 QJX      -0.018100
     20 C09          6.2190     6.3350    23.4730 c3         1 QJX      -0.068400
     21 C12          2.4110     5.9060    19.4080 cp         1 QJX      -0.024000
     22 N14          6.9810     7.2550    17.9420 nh         1 QJX      -0.778300
     23 N19          3.7950     5.2080    16.7450 na         1 QJX      -0.223700
     24 N20          3.5230     5.3230    15.4220 nc         1 QJX      -0.201800
     25 N21          3.8970     6.5370    15.1190 nd         1 QJX      -0.051000
     26 N22          4.3940     7.2060    16.2140 nd         1 QJX      -0.383000
     27 N25         -0.2040     4.9200    18.8670 nb         1 QJX      -0.656000
     28 H29          7.1260     7.9800    22.4200 hc         1 QJX       0.063200
     29 H28          5.5270     8.3490    23.0100 hc         1 QJX       0.063200
     30 H34          2.8970     5.2020    23.7940 hc         1 QJX       0.041200
     31 H35          4.0680     4.6160    22.6230 hc         1 QJX       0.041200
     32 H37          5.0890     5.1060    24.8410 hc         1 QJX       0.039200
     33 H36          4.5360     6.7690    24.7690 hc         1 QJX       0.039200
     34 H38          8.6040     5.8940    17.9230 h1         1 QJX       0.048200
     35 H39          7.0300     5.1670    17.6150 h1         1 QJX       0.048200
     36 H41          8.3490     5.1310    15.5600 hc         1 QJX       0.045700
     37 H40          6.9760     6.2310    15.3320 hc         1 QJX       0.045700
     38 H42          8.6070     6.8830    15.6200 hc         1 QJX       0.045700
     39 H45          9.3780     9.7630    18.0750 hc         1 QJX       0.045700
     40 H44          9.0540     8.5380    19.3200 hc         1 QJX       0.045700
     41 H43          9.7110     8.0540    17.7370 hc         1 QJX       0.045700
     42 H47          7.5860     8.8010    16.6270 h1         1 QJX       0.048200
     43 H46          6.9620     9.3580    18.1690 h1         1 QJX       0.048200
     44 H49          2.6570     4.0060    20.4380 ha         1 QJX       0.133500
     45 H50          0.3450     3.2160    19.9290 h4         1 QJX       0.025100
     46 H51         -0.5390     6.7040    17.8470 h4         1 QJX       0.025100
     47 H52          1.7340     7.6390    18.2790 ha         1 QJX       0.133500
     48 H31          3.2380     7.5650    22.7450 hc         1 QJX       0.051700
     49 H30          2.2710     6.3950    21.9120 hc         1 QJX       0.051700
     50 H32          6.6270     5.4800    22.9200 hc         1 QJX       0.044700
     51 H33          6.9440     6.5660    24.2640 hc         1 QJX       0.044700
     52 H48          3.5990     4.3670    17.2720 hn         1 QJX       0.386000
@<TRIPOS>BOND
     1     1    17 ar  
     2     1    18 ar  
     3     1    22 1   
     4     2     3 ar  
     5     2    18 ar  
     6     2    21 1   
     7     3     4 ar  
     8     3    19 1   
     9     4     5 1   
    10     4    17 ar  
    11     5    20 1   
    12     5    28 1   
    13     5    29 1   
    14     6     7 1   
    15     6    19 1   
    16     6    30 1   
    17     6    31 1   
    18     7    20 1   
    19     7    32 1   
    20     7    33 1   
    21     8    18 1   
    22     8    23 1   
    23     8    26 2   
    24     9    10 1   
    25     9    22 1   
    26     9    34 1   
    27     9    35 1   
    28    10    36 1   
    29    10    37 1   
    30    10    38 1   
    31    11    12 1   
    32    11    39 1   
    33    11    40 1   
    34    11    41 1   
    35    12    22 1   
    36    12    42 1   
    37    12    43 1   
    38    13    14 ar  
    39    13    21 ar  
    40    13    44 1   
    41    14    27 ar  
    42    14    45 1   
    43    15    16 ar  
    44    15    27 ar  
    45    15    46 1   
    46    16    21 ar  
    47    16    47 1   
    48    19    48 1   
    49    19    49 1   
    50    20    50 1   
    51    20    51 1   
    52    23    24 1   
    53    23    52 1   
    54    24    25 2   
    55    25    26 1   
@<TRIPOS>SUBSTRUCTURE
     1 QJX         1 TEMP              0 ****  ****    0 ROOT
