@<TRIPOS>MOLECULE
QJX
   52    55     1     0     0
SMALL
abcg2


@<TRIPOS>ATOM
      1 C02          6.0140     7.1710    18.8400 ca         1 QJX       0.674900
      2 C04          3.8700     6.3750    19.6510 cp         1 QJX       0.054000
      3 C05          4.1980     6.8130    20.9350 ca         1 QJX      -0.166300
      4 C06          5.4170     7.4920    21.0700 ca         1 QJX       0.433300
      5 C07          5.8520     8.0520    22.3980 c3         1 QJX      -0.134700
      6 C10          3.8770     5.7080    23.2170 c3         1 QJX      -0.070400
      7 C11          4.8820     6.4030    24.1360 c3         1 QJX      -0.075400
      8 C13          4.2630     6.3120    17.2180 cc         1 QJX       0.482000
      9 C15          7.2200     6.3690    16.8100 c3         1 QJX       0.226300
     10 C16          7.2340     7.0080    15.4260 c3         1 QJX      -0.113100
     11 C17          9.2650     7.3670    19.0250 c3         1 QJX      -0.113100
     12 C18          8.1880     8.1210    18.2480 c3         1 QJX       0.226300
     13 C23          2.3490     4.3870    19.7690 ca         1 QJX      -0.154000
     14 C24          1.1270     3.7950    19.4850 ca         1 QJX       0.334400
     15 C26          0.3330     5.7020    18.5160 ca         1 QJX       0.334400
     16 C27          1.5210     6.3800    18.7550 ca         1 QJX      -0.154000
     17 N01          6.2790     7.6420    20.0680 nb         1 QJX      -0.759000
     18 C03          4.7480     6.5830    18.5750 ca         1 QJX      -0.271500
     19 C08          3.2890     6.6140    22.1210 c3         1 QJX      -0.018100
     20 C09          6.1300     6.9680    23.4560 c3         1 QJX      -0.068400
     21 C12          2.5620     5.7120    19.3940 cp         1 QJX      -0.024000
     22 N14          7.0090     7.3190    17.9050 nh         1 QJX      -0.778300
     23 N19          3.9150     5.1150    16.7140 na         1 QJX      -0.223700
     24 N20          3.4440     5.2700    15.4710 nc         1 QJX      -0.201800
     25 N21          3.5060     6.5340    15.2210 nd         1 QJX      -0.051000
     26 N22          4.0060     7.2120    16.2810 nd         1 QJX      -0.383000
     27 N25          0.1260     4.4290    18.8660 nb         1 QJX      -0.656000
     28 H29          6.7560     8.6340    22.2250 hc         1 QJX       0.063200
     29 H28          5.0880     8.7360    22.7820 hc         1 QJX       0.063200
     30 H34          3.0540     5.3350    23.8320 hc         1 QJX       0.041200
     31 H35          4.3370     4.8330    22.7470 hc         1 QJX       0.041200
     32 H37          5.1950     5.6980    24.9120 hc         1 QJX       0.039200
     33 H36          4.3690     7.2220    24.6520 hc         1 QJX       0.039200
     34 H38          8.1750     5.8620    16.9810 h1         1 QJX       0.048200
     35 H39          6.4660     5.5910    16.8620 h1         1 QJX       0.048200
     36 H41          7.3790     6.2340    14.6680 hc         1 QJX       0.045700
     37 H40          6.2970     7.5230    15.2230 hc         1 QJX       0.045700
     38 H42          8.0510     7.7240    15.3280 hc         1 QJX       0.045700
     39 H45         10.1150     8.0280    19.2110 hc         1 QJX       0.045700
     40 H44          8.8780     7.0220    19.9830 hc         1 QJX       0.045700
     41 H43          9.6310     6.5040    18.4660 hc         1 QJX       0.045700
     42 H47          8.6040     8.4890    17.3080 h1         1 QJX       0.048200
     43 H46          7.8560     8.9860    18.8170 h1         1 QJX       0.048200
     44 H49          3.1260     3.8240    20.2690 ha         1 QJX       0.133500
     45 H50          0.9470     2.7620    19.7650 h4         1 QJX       0.025100
     46 H51         -0.4880     6.2060    18.0180 h4         1 QJX       0.025100
     47 H52          1.6320     7.4100    18.4440 ha         1 QJX       0.133500
     48 H31          3.0490     7.5880    22.5630 hc         1 QJX       0.051700
     49 H30          2.3440     6.1940    21.7850 hc         1 QJX       0.051700
     50 H32          6.7050     6.1580    22.9950 hc         1 QJX       0.044700
     51 H33          6.7710     7.4040    24.2270 hc         1 QJX       0.044700
     52 H48          3.9740     4.1980    17.1360 hn         1 QJX       0.386000
@<TRIPOS>BOND
     1     1    17 ar  
     2     1    18 ar  
     3     1    22 1   
     4     2     3 ar  
     5     2    18 ar  
     6     2    21 1   
     7     3     4 ar  
     8     3    19 1   
     9     4     5 1   
    10     4    17 ar  
    11     5    20 1   
    12     5    28 1   
    13     5    29 1   
    14     6     7 1   
    15     6    19 1   
    16     6    30 1   
    17     6    31 1   
    18     7    20 1   
    19     7    32 1   
    20     7    33 1   
    21     8    18 1   
    22     8    23 1   
    23     8    26 2   
    24     9    10 1   
    25     9    22 1   
    26     9    34 1   
    27     9    35 1   
    28    10    36 1   
    29    10    37 1   
    30    10    38 1   
    31    11    12 1   
    32    11    39 1   
    33    11    40 1   
    34    11    41 1   
    35    12    22 1   
    36    12    42 1   
    37    12    43 1   
    38    13    14 ar  
    39    13    21 ar  
    40    13    44 1   
    41    14    27 ar  
    42    14    45 1   
    43    15    16 ar  
    44    15    27 ar  
    45    15    46 1   
    46    16    21 ar  
    47    16    47 1   
    48    19    48 1   
    49    19    49 1   
    50    20    50 1   
    51    20    51 1   
    52    23    24 1   
    53    23    52 1   
    54    24    25 2   
    55    25    26 1   
@<TRIPOS>SUBSTRUCTURE
     1 QJX         1 TEMP              0 ****  ****    0 ROOT
