@<TRIPOS>MOLECULE
QJY
   89    93     1     0     0
SMALL
No Charge or Current Charge


@<TRIPOS>ATOM
      1 C1          -9.5240    13.5810    -3.5450 c6         1 QJY      -0.125400
      2 C10        -10.8970    18.0540     5.6610 ca         1 QJY      -0.012000
      3 C11        -10.3080    18.0450     4.3750 ca         1 QJY      -0.325500
      4 C12         -6.3450    17.6970     0.9540 ca         1 QJY      -0.161500
      5 C13         -9.8990    16.8300     3.7920 ca         1 QJY       0.054000
      6 C14         -6.4720    18.6370    -0.0900 ca         1 QJY      -0.024300
      7 C15         -5.3830    18.8340    -0.9640 ca         1 QJY      -0.161500
      8 C2         -10.3170    13.4990     5.5390 cc         1 QJY       0.671100
      9 C20        -12.4450    18.9140     2.3110 c3         1 QJY       0.221800
     10 C21        -13.1620    18.0540     1.2370 c3         1 QJY      -0.067700
     11 C22        -12.4760    16.6780     1.0420 c3         1 QJY      -0.092100
     12 C23        -14.6580    17.8750     1.5810 c3         1 QJY      -0.092100
     13 C25        -10.3780    19.4070    -0.4290 c3         1 QJY       0.143300
     14 C27         -9.0520    18.5920    -0.3060 c3         1 QJY       0.141700
     15 C29         -8.8790    16.2240    -1.1200 c          1 QJY       0.637100
     16 C32         -8.7060    14.1390    -2.3740 c6         1 QJY       0.200300
     17 C33         -6.6110    13.9350    -3.9540 c5         1 QJY       0.394300
     18 C35         -5.7760    15.6540    -2.6280 c5         1 QJY       0.166600
     19 C36         -6.1410    14.4390    -1.7170 c5         1 QJY      -0.105400
     20 C37         -7.2260    13.6940    -2.5520 c5         1 QJY      -0.140700
     21 C38         -7.7550    19.4490    -0.2670 c3         1 QJY      -0.049100
     22 C39         -5.1650    16.9530     1.1000 ca         1 QJY       0.194000
     23 C40         -4.2020    18.0920    -0.8040 ca         1 QJY       0.194000
     24 C41         -4.0900    17.1450     0.2220 ca         1 QJY      -0.205000
     25 C42        -10.0910    15.6460     4.5160 ca         1 QJY      -0.236000
     26 C44         -9.4290     9.9700     6.2680 c3         1 QJY      -0.112600
     27 C45        -10.9620    10.5050     4.2940 c3         1 QJY      -0.112600
     28 C6          -8.9390    14.0520    -4.8900 c6         1 QJY       0.160600
     29 C7         -10.6610    15.6380     5.7730 ca         1 QJY       0.207400
     30 C9         -11.0700    16.8440     6.3620 ca         1 QJY      -0.107000
     31 F46         -5.0620    16.0470     2.0960 f          1 QJY      -0.176000
     32 F47         -3.1700    18.2830    -1.6530 f          1 QJY      -0.176000
     33 N28         -8.9720    17.5660    -1.3530 ns         1 QJY      -0.502900
     34 N3         -10.8000    14.3980     6.3860 nd         1 QJY      -0.658100
     35 N8         -10.3650    12.2060     5.9540 nu         1 QJY      -0.877400
     36 O17        -10.7340    20.6940     4.1200 o          1 QJY      -0.537000
     37 O18         -8.7070    19.5930     2.9960 o          1 QJY      -0.537000
     38 O30         -8.8550    15.7010    -0.0190 o          1 QJY      -0.541000
     39 O31         -8.8720    15.5720    -2.3140 os         1 QJY      -0.460100
     40 O34         -6.2250    15.3150    -3.9620 os         1 QJY      -0.479000
     41 O4          -7.5430    13.7010    -5.0450 os         1 QJY      -0.440000
     42 S16        -10.1050    19.5600     3.4360 sy         1 QJY       1.179600
     43 S5          -9.6670    14.0340     3.9700 ss         1 QJY      -0.017200
     44 H1         -10.5700    13.9050    -3.4580 hc         1 QJY       0.061200
     45 H2          -9.5330    12.4830    -3.5090 hc         1 QJY       0.061200
     46 H4          -7.1580    17.5360     1.6550 ha         1 QJY       0.145000
     47 H5          -9.4590    16.8030     2.7950 ha         1 QJY       0.150000
     48 H6          -5.4480    19.5580    -1.7710 ha         1 QJY       0.145000
     49 H7         -13.0020    19.8520     2.4420 h1         1 QJY       0.046200
     50 H8         -12.5480    18.3670     3.2570 h1         1 QJY       0.046200
     51 H9         -13.1280    18.5940     0.2850 hc         1 QJY       0.041700
     52 H10        -11.4250    16.7950     0.7570 hc         1 QJY       0.040533
     53 H11        -12.5110    16.0920     1.9680 hc         1 QJY       0.040533
     54 H12        -12.9760    16.1040     0.2530 hc         1 QJY       0.040533
     55 H13        -15.1540    18.8490     1.6730 hc         1 QJY       0.040533
     56 H14        -15.1710    17.3070     0.7960 hc         1 QJY       0.040533
     57 H15        -14.7800    17.3370     2.5300 hc         1 QJY       0.040533
     58 H18        -11.1690    18.6810    -0.6460 h1         1 QJY       0.053700
     59 H19         -9.1150    18.0670     0.6550 h1         1 QJY       0.091700
     60 H20         -9.1080    13.6980    -1.4490 h1         1 QJY       0.082700
     61 H21         -5.7160    13.3120    -4.0910 h2         1 QJY       0.071700
     62 H22         -4.6950    15.8500    -2.6380 h1         1 QJY       0.047200
     63 H23         -6.2920    16.5700    -2.3120 h1         1 QJY       0.047200
     64 H24         -6.4800    14.7400    -0.7210 hc         1 QJY       0.059700
     65 H25         -5.2590    13.8040    -1.5650 hc         1 QJY       0.059700
     66 H26         -7.2210    12.6230    -2.3180 hc         1 QJY       0.075700
     67 H27         -7.6950    20.0360    -1.1920 hc         1 QJY       0.073700
     68 H28         -7.8260    20.1810     0.5440 hc         1 QJY       0.073700
     69 H29         -3.1780    16.5680     0.3390 ha         1 QJY       0.146000
     70 H30         -8.9890    11.3000     4.6420 h1         1 QJY       0.065700
     71 H31         -9.0300     9.0860     5.7570 hc         1 QJY       0.049200
     72 H32         -8.6420    10.3670     6.9210 hc         1 QJY       0.049200
     73 H33        -10.2720     9.6510     6.8940 hc         1 QJY       0.049200
     74 H34        -10.6030     9.6270     3.7450 hc         1 QJY       0.049200
     75 H35        -11.8620    10.2190     4.8520 hc         1 QJY       0.049200
     76 H36        -11.2400    11.2720     3.5610 hc         1 QJY       0.049200
     77 H37         -9.0300    15.1460    -4.9630 h1         1 QJY       0.056200
     78 H38         -9.5090    13.6170    -5.7220 h1         1 QJY       0.056200
     79 H39        -11.5220    16.8430     7.3490 ha         1 QJY       0.134000
     80 H40         -9.0080    17.8500    -2.3220 hn         1 QJY       0.333500
     81 H41        -10.7570    12.1030     6.8850 hn         1 QJY       0.505000
     82 O26        -10.3000    20.3460    -1.5250 oh         1 QJY      -0.659000
     83 C24        -10.7690    20.1380     0.8920 c3         1 QJY       0.198800
     84 N19        -11.0180    19.2230     2.0400 n3         1 QJY      -0.773500
     85 H3         -11.2220    18.9880     6.1160 ha         1 QJY       0.121000
     86 C43         -9.8690    11.0290     5.2440 c3         1 QJY       0.239500
     87 H16         -9.9710    20.8560     1.1240 h1         1 QJY       0.059700
     88 H17        -11.6650    20.7450     0.7020 h1         1 QJY       0.059700
     89 H42        -11.2200    20.5960    -1.7650 ho         1 QJY       0.445000
@<TRIPOS>BOND
     1     1    16 1   
     2     1    28 1   
     3     1    44 1   
     4     1    45 1   
     5     2     3 ar  
     6     2    30 ar  
     7     2    85 1   
     8     3     5 ar  
     9     3    42 1   
    10     4     6 ar  
    11     4    22 ar  
    12     4    46 1   
    13     5    25 ar  
    14     5    47 1   
    15     6     7 ar  
    16     6    21 1   
    17     7    23 ar  
    18     7    48 1   
    19     8    34 2   
    20     8    35 1   
    21     8    43 1   
    22     9    10 1   
    23     9    49 1   
    24     9    50 1   
    25     9    84 1   
    26    10    11 1   
    27    10    12 1   
    28    10    51 1   
    29    11    52 1   
    30    11    53 1   
    31    11    54 1   
    32    12    55 1   
    33    12    56 1   
    34    12    57 1   
    35    13    14 1   
    36    13    58 1   
    37    13    82 1   
    38    13    83 1   
    39    14    21 1   
    40    14    33 1   
    41    14    59 1   
    42    15    33 1   
    43    15    38 2   
    44    15    39 1   
    45    16    20 1   
    46    16    39 1   
    47    16    60 1   
    48    17    20 1   
    49    17    40 1   
    50    17    41 1   
    51    17    61 1   
    52    18    19 1   
    53    18    40 1   
    54    18    62 1   
    55    18    63 1   
    56    19    20 1   
    57    19    64 1   
    58    19    65 1   
    59    20    66 1   
    60    21    67 1   
    61    21    68 1   
    62    22    24 ar  
    63    22    31 1   
    64    23    24 ar  
    65    23    32 1   
    66    24    69 1   
    67    25    29 ar  
    68    25    43 1   
    69    26    71 1   
    70    26    72 1   
    71    26    73 1   
    72    26    86 1   
    73    27    74 1   
    74    27    75 1   
    75    27    76 1   
    76    27    86 1   
    77    28    41 1   
    78    28    77 1   
    79    28    78 1   
    80    29    30 ar  
    81    29    34 1   
    82    30    79 1   
    83    33    80 1   
    84    35    81 1   
    85    35    86 1   
    86    36    42 2   
    87    37    42 2   
    88    42    84 1   
    89    70    86 1   
    90    82    89 1   
    91    83    84 1   
    92    83    87 1   
    93    83    88 1   
@<TRIPOS>SUBSTRUCTURE
     1 QJY         1 TEMP              0 ****  ****    0 ROOT
