@<TRIPOS>MOLECULE
QJY
   89    93     1     0     0
SMALL
bcc


@<TRIPOS>ATOM
      1 C1          -9.1000    15.2900    -5.3650 c6         1 QJY      -0.125400
      2 C10        -10.2070    17.0100     5.1670 ca         1 QJY      -0.030000
      3 C11         -9.8990    15.8910     4.3890 ca         1 QJY      -0.325500
      4 C12         -5.6400    17.5520     0.3430 ca         1 QJY      -0.179500
      5 C13        -10.0570    14.6000     4.8740 ca         1 QJY       0.036000
      6 C14         -6.2660    18.6100    -0.3130 ca         1 QJY      -0.024300
      7 C15         -5.6110    19.2470    -1.3630 ca         1 QJY      -0.179500
      8 C2         -11.3350    13.9870     8.4180 cc         1 QJY       0.671100
      9 C20        -11.7810    16.1230     1.9330 c3         1 QJY       0.221800
     10 C21        -12.4220    15.8560     0.5730 c3         1 QJY      -0.067700
     11 C22        -11.5710    14.9360    -0.2900 c3         1 QJY      -0.092100
     12 C23        -13.8090    15.2620     0.7970 c3         1 QJY      -0.092100
     13 C25        -10.1390    18.4200     0.0120 c3         1 QJY       0.120100
     14 C27         -8.7100    18.0380    -0.3810 c3         1 QJY       0.141700
     15 C29         -8.2890    16.6640    -2.3640 c          1 QJY       0.753100
     16 C32         -7.9120    15.6010    -4.4700 c6         1 QJY       0.177100
     17 C33         -6.9190    16.7050    -6.5500 c5         1 QJY       0.347900
     18 C35         -5.9230    18.1240    -5.0290 c5         1 QJY       0.143400
     19 C36         -5.5830    16.6820    -4.6130 c5         1 QJY      -0.105400
     20 C37         -6.6580    15.8510    -5.3060 c5         1 QJY      -0.140700
     21 C38         -7.6490    19.0460     0.0840 c3         1 QJY      -0.049100
     22 C39         -4.3810    17.1600    -0.0660 ca         1 QJY       0.158900
     23 C40         -4.3510    18.8170    -1.7330 ca         1 QJY       0.158900
     24 C41         -3.7040    17.7710    -1.1060 ca         1 QJY      -0.223000
     25 C42        -10.5320    14.4620     6.1630 ca         1 QJY      -0.109100
     26 C44        -11.6710    11.6550    11.2320 c3         1 QJY      -0.112600
     27 C45        -13.2620    11.5260     9.2800 c3         1 QJY      -0.112600
     28 C6          -9.2700    16.3610    -6.4240 c6         1 QJY       0.137400
     29 C7         -10.8510    15.5680     6.9740 ca         1 QJY       0.207400
     30 C9         -10.6850    16.8540     6.4520 ca         1 QJY      -0.125000
     31 F46         -3.7790    16.1440     0.5680 f          1 QJY      -0.140900
     32 F47         -3.7280    19.4350    -2.7480 f          1 QJY      -0.140900
     33 N28         -8.6210    17.8450    -1.8120 ns         1 QJY      -0.569900
     34 N3         -11.3020    15.2750     8.2250 nd         1 QJY      -0.658100
     35 N8         -11.6980    13.4110     9.5610 nu         1 QJY      -0.822200
     36 O17         -8.1980    17.1260     2.8300 o          1 QJY      -0.607800
     37 O18         -8.9610    14.8180     2.2160 o          1 QJY      -0.607800
     38 O30         -8.0770    15.6390    -1.7460 o          1 QJY      -0.590000
     39 O31         -8.2290    16.7660    -3.6980 os         1 QJY      -0.436900
     40 O34         -6.8590    18.0370    -6.0920 os         1 QJY      -0.432600
     41 O4          -8.1030    16.4810    -7.2230 os         1 QJY      -0.393600
     42 S16         -9.2640    16.1340     2.7590 sy         1 QJY       1.321200
     43 S5         -10.8260    12.9960     7.0480 ss         1 QJY      -0.144100
     44 H1         -10.0120    15.1990    -4.7710 hc         1 QJY       0.061200
     45 H2          -8.9330    14.3210    -5.8430 hc         1 QJY       0.061200
     46 H4          -6.1280    17.0420     1.1640 ha         1 QJY       0.163000
     47 H5          -9.8190    13.7370     4.2680 ha         1 QJY       0.168000
     48 H6          -6.0790    20.0710    -1.8870 ha         1 QJY       0.163000
     49 H7         -12.4590    16.7220     2.5500 h1         1 QJY       0.046200
     50 H8         -11.6650    15.1630     2.4420 h1         1 QJY       0.046200
     51 H9         -12.5540    16.8120     0.0550 hc         1 QJY       0.041700
     52 H10        -10.5820    15.3470    -0.4930 hc         1 QJY       0.040533
     53 H11        -11.4330    13.9690     0.1990 hc         1 QJY       0.040533
     54 H12        -12.0540    14.7550    -1.2510 hc         1 QJY       0.040533
     55 H13        -14.4370    15.9220     1.3980 hc         1 QJY       0.040533
     56 H14        -14.3170    15.0960    -0.1530 hc         1 QJY       0.040533
     57 H15        -13.7450    14.3000     1.3110 hc         1 QJY       0.040533
     58 H18        -10.7990    17.7660    -0.5710 h1         1 QJY       0.053700
     59 H19         -8.4960    17.0700     0.0710 h1         1 QJY       0.091700
     60 H20         -7.7200    14.7680    -3.7940 h1         1 QJY       0.082700
     61 H21         -6.1310    16.5220    -7.2950 h2         1 QJY       0.071700
     62 H22         -5.0270    18.6590    -5.3560 h1         1 QJY       0.047200
     63 H23         -6.3720    18.6950    -4.2140 h1         1 QJY       0.047200
     64 H24         -5.5560    16.5500    -3.5310 hc         1 QJY       0.059700
     65 H25         -4.6000    16.3990    -4.9920 hc         1 QJY       0.059700
     66 H26         -6.2790    14.8710    -5.6070 hc         1 QJY       0.075700
     67 H27         -7.8540    20.0260    -0.3480 hc         1 QJY       0.073700
     68 H28         -7.7070    19.1550     1.1680 hc         1 QJY       0.073700
     69 H29         -2.7170    17.4470    -1.4110 ha         1 QJY       0.164000
     70 H30        -11.1170    11.4630     9.1870 h1         1 QJY       0.065700
     71 H31        -11.7870    10.5850    11.3950 hc         1 QJY       0.049200
     72 H32        -10.6730    11.9440    11.5590 hc         1 QJY       0.049200
     73 H33        -12.4030    12.1690    11.8580 hc         1 QJY       0.049200
     74 H34        -13.3670    10.4480     9.4050 hc         1 QJY       0.049200
     75 H35        -14.0520    12.0130     9.8530 hc         1 QJY       0.049200
     76 H36        -13.4130    11.7560     8.2250 hc         1 QJY       0.049200
     77 H37         -9.5360    17.3200    -5.9680 h1         1 QJY       0.056200
     78 H38        -10.0750    16.0960    -7.1100 h1         1 QJY       0.056200
     79 H39        -10.9230    17.7170     7.0590 ha         1 QJY       0.152000
     80 H40         -8.7350    18.6480    -2.4130 hn         1 QJY       0.333500
     81 H41        -12.0460    14.0380    10.2730 hn         1 QJY       0.449800
     82 O26        -10.3440    19.7680    -0.3400 oh         1 QJY      -0.596800
     83 C24        -10.4630    18.2060     1.4980 c3         1 QJY       0.198800
     84 N19        -10.4840    16.7980     1.8770 n3         1 QJY      -0.773500
     85 H3         -10.0730    18.0080     4.7710 ha         1 QJY       0.139000
     86 C43        -11.8900    11.9820     9.7630 c3         1 QJY       0.239500
     87 H16         -9.7770    18.7740     2.1270 h1         1 QJY       0.059700
     88 H17        -11.4620    18.6080     1.6940 h1         1 QJY       0.059700
     89 H42        -11.2890    19.9530    -0.3230 ho         1 QJY       0.406000
@<TRIPOS>BOND
     1     1    16 1   
     2     1    28 1   
     3     1    44 1   
     4     1    45 1   
     5     2     3 ar  
     6     2    30 ar  
     7     2    85 1   
     8     3     5 ar  
     9     3    42 1   
    10     4     6 ar  
    11     4    22 ar  
    12     4    46 1   
    13     5    25 ar  
    14     5    47 1   
    15     6     7 ar  
    16     6    21 1   
    17     7    23 ar  
    18     7    48 1   
    19     8    34 2   
    20     8    35 1   
    21     8    43 1   
    22     9    10 1   
    23     9    49 1   
    24     9    50 1   
    25     9    84 1   
    26    10    11 1   
    27    10    12 1   
    28    10    51 1   
    29    11    52 1   
    30    11    53 1   
    31    11    54 1   
    32    12    55 1   
    33    12    56 1   
    34    12    57 1   
    35    13    14 1   
    36    13    58 1   
    37    13    82 1   
    38    13    83 1   
    39    14    21 1   
    40    14    33 1   
    41    14    59 1   
    42    15    33 1   
    43    15    38 2   
    44    15    39 1   
    45    16    20 1   
    46    16    39 1   
    47    16    60 1   
    48    17    20 1   
    49    17    40 1   
    50    17    41 1   
    51    17    61 1   
    52    18    19 1   
    53    18    40 1   
    54    18    62 1   
    55    18    63 1   
    56    19    20 1   
    57    19    64 1   
    58    19    65 1   
    59    20    66 1   
    60    21    67 1   
    61    21    68 1   
    62    22    24 ar  
    63    22    31 1   
    64    23    24 ar  
    65    23    32 1   
    66    24    69 1   
    67    25    29 ar  
    68    25    43 1   
    69    26    71 1   
    70    26    72 1   
    71    26    73 1   
    72    26    86 1   
    73    27    74 1   
    74    27    75 1   
    75    27    76 1   
    76    27    86 1   
    77    28    41 1   
    78    28    77 1   
    79    28    78 1   
    80    29    30 ar  
    81    29    34 1   
    82    30    79 1   
    83    33    80 1   
    84    35    81 1   
    85    35    86 1   
    86    36    42 2   
    87    37    42 2   
    88    42    84 1   
    89    70    86 1   
    90    82    89 1   
    91    83    84 1   
    92    83    87 1   
    93    83    88 1   
@<TRIPOS>SUBSTRUCTURE
     1 QJY         1 TEMP              0 ****  ****    0 ROOT
