@<TRIPOS>MOLECULE
QJZ
   33    35     1     0     0
SMALL
No Charge or Current Charge


@<TRIPOS>ATOM
      1 C4           1.3050     0.1440     0.1280 ca         1 QJZ      -0.199000
      2 C5           1.9990    -1.0170    -0.1200 ca         1 QJZ       0.142400
      3 C6           1.2990    -2.2140    -0.3200 ca         1 QJZ      -0.075000
      4 C8           3.7070     0.3630     0.0730 cc         1 QJZ       0.488800
      5 C10         -2.3450    -1.0160     0.0580 cp         1 QJZ       0.203500
      6 C13          7.4410     0.9530     0.0340 c3         1 QJZ      -0.184100
      7 C15         -3.1160    -2.1850     0.2730 ca         1 QJZ      -0.224000
      8 C21         -6.9040     1.4660    -0.1280 c3         1 QJZ       0.022900
      9 C12          6.1820     0.1000    -0.0770 c          1 QJZ       0.607100
     10 O14          6.2440    -1.0980    -0.3070 o          1 QJZ      -0.510100
     11 N11          5.0130     0.8060     0.1040 ns         1 QJZ      -0.419400
     12 N9           3.3840    -0.9150    -0.1570 nd         1 QJZ      -0.557100
     13 S7           2.3750     1.5150     0.3450 ss         1 QJZ      -0.021200
     14 C3          -0.0960     0.1790     0.1900 ca         1 QJZ      -0.010000
     15 C1          -0.1090    -2.2150    -0.2630 ca         1 QJZ      -0.081000
     16 C2          -0.8420    -1.0190    -0.0030 cp         1 QJZ      -0.169500
     17 N19         -2.9720     0.1700    -0.0900 nb         1 QJZ      -0.182000
     18 C16         -4.5130    -2.0650     0.3130 ca         1 QJZ       0.119900
     19 N17         -5.1200    -0.8740     0.1550 nb         1 QJZ      -0.193000
     20 C18         -4.3200     0.1970    -0.0390 ca         1 QJZ       0.238300
     21 S20         -5.0870     1.8020    -0.2480 ss         1 QJZ      -0.308300
     22 H6           1.8410    -3.1350    -0.5210 ha         1 QJZ       0.139000
     23 H13          7.4420     1.4680     1.0010 hc         1 QJZ       0.067033
     24 H13A         8.3580     0.3710    -0.1140 hc         1 QJZ       0.067033
     25 H13B         7.3740     1.7860    -0.6760 hc         1 QJZ       0.067033
     26 H15         -2.6550    -3.1560     0.4200 ha         1 QJZ       0.136000
     27 H21         -7.1410     1.0310     0.8510 h1         1 QJZ       0.070700
     28 H21A        -7.4610     2.4040    -0.2470 h1         1 QJZ       0.070700
     29 H21B        -7.2080     0.7680    -0.9180 h1         1 QJZ       0.070700
     30 HN11         5.1470     1.7900     0.2850 hn         1 QJZ       0.330500
     31 H3          -0.5950     1.1240     0.3950 ha         1 QJZ       0.151000
     32 H1          -0.6270    -3.1530    -0.4380 ha         1 QJZ       0.117000
     33 H16         -5.1550    -2.9290     0.4770 h4         1 QJZ       0.024100
@<TRIPOS>BOND
     1     1     2 ar  
     2     1    13 1   
     3     1    14 ar  
     4     2     3 ar  
     5     2    12 1   
     6     3    15 ar  
     7     3    22 1   
     8     4    11 1   
     9     4    12 2   
    10     4    13 1   
    11     5     7 ar  
    12     5    16 1   
    13     5    17 ar  
    14     6     9 1   
    15     6    23 1   
    16     6    24 1   
    17     6    25 1   
    18     7    18 ar  
    19     7    26 1   
    20     8    21 1   
    21     8    27 1   
    22     8    28 1   
    23     8    29 1   
    24     9    10 2   
    25     9    11 1   
    26    11    30 1   
    27    14    16 ar  
    28    14    31 1   
    29    15    16 ar  
    30    15    32 1   
    31    17    20 ar  
    32    18    19 ar  
    33    18    33 1   
    34    19    20 ar  
    35    20    21 1   
@<TRIPOS>SUBSTRUCTURE
     1 QJZ         1 TEMP              0 ****  ****    0 ROOT
