@<TRIPOS>MOLECULE
QJZ
   33    35     1     0     0
SMALL
bcc


@<TRIPOS>ATOM
      1 C4           1.2190     0.1580     0.0120 ca         1 QJZ      -0.072100
      2 C5           1.9530    -1.0380    -0.0550 ca         1 QJZ       0.142400
      3 C6           1.2640    -2.2480    -0.1010 ca         1 QJZ      -0.093000
      4 C8           3.6440     0.3440    -0.0140 cc         1 QJZ       0.488800
      5 C10         -2.3190    -1.0380     0.0260 cp         1 QJZ       0.531800
      6 C13          7.3190     0.9980     0.0600 c3         1 QJZ      -0.184100
      7 C15         -3.0810    -2.2040     0.1320 ca         1 QJZ      -0.372600
      8 C21         -6.6920     1.4750    -0.0260 c3         1 QJZ      -0.025000
      9 C12          6.0950     0.1310    -0.0450 c          1 QJZ       0.674100
     10 O14          6.1310    -1.0730    -0.1260 o          1 QJZ      -0.510100
     11 N11          4.9140     0.8490    -0.0060 ns         1 QJZ      -0.486400
     12 N9           3.3170    -0.8980    -0.0690 nd         1 QJZ      -0.557100
     13 S7           2.3190     1.4980     0.0600 ss         1 QJZ      -0.148100
     14 C3          -0.1620     0.1760     0.0360 ca         1 QJZ      -0.028000
     15 C1          -0.1160    -2.2380    -0.0750 ca         1 QJZ      -0.099000
     16 C2          -0.8440    -1.0390    -0.0050 cp         1 QJZ      -0.169500
     17 N19         -2.9220     0.1450    -0.0450 nb         1 QJZ      -0.708000
     18 C16         -4.4520    -2.0540     0.1490 ca         1 QJZ       0.448200
     19 N17         -5.0540    -0.8720     0.0760 nb         1 QJZ      -0.719000
     20 C18         -4.2450     0.1700    -0.0140 ca         1 QJZ       0.764300
     21 S20         -4.9180     1.7860    -0.1080 ss         1 QJZ      -0.260400
     22 H6           1.8100    -3.1800    -0.1590 ha         1 QJZ       0.157000
     23 H13          7.5790     1.1160     1.1140 hc         1 QJZ       0.067033
     24 H13A         8.1560     0.5160    -0.4400 hc         1 QJZ       0.067033
     25 H13B         7.1760     1.9920    -0.3610 hc         1 QJZ       0.067033
     26 H15         -2.6470    -3.1890     0.2060 ha         1 QJZ       0.154000
     27 H21         -6.9670     1.0020     0.9130 h1         1 QJZ       0.070700
     28 H21A        -7.1680     2.4520    -0.0870 h1         1 QJZ       0.070700
     29 H21B        -7.0250     0.8630    -0.8610 h1         1 QJZ       0.070700
     30 HN11         5.0010     1.8530     0.0530 hn         1 QJZ       0.330500
     31 H3          -0.7120     1.1050     0.0880 ha         1 QJZ       0.169000
     32 H1          -0.6310    -3.1870    -0.1190 ha         1 QJZ       0.135000
     33 H16         -5.0980    -2.9220     0.2290 h4         1 QJZ       0.024100
@<TRIPOS>BOND
     1     1     2 ar  
     2     1    13 1   
     3     1    14 ar  
     4     2     3 ar  
     5     2    12 1   
     6     3    15 ar  
     7     3    22 1   
     8     4    11 1   
     9     4    12 2   
    10     4    13 1   
    11     5     7 ar  
    12     5    16 1   
    13     5    17 ar  
    14     6     9 1   
    15     6    23 1   
    16     6    24 1   
    17     6    25 1   
    18     7    18 ar  
    19     7    26 1   
    20     8    21 1   
    21     8    27 1   
    22     8    28 1   
    23     8    29 1   
    24     9    10 2   
    25     9    11 1   
    26    11    30 1   
    27    14    16 ar  
    28    14    31 1   
    29    15    16 ar  
    30    15    32 1   
    31    17    20 ar  
    32    18    19 ar  
    33    18    33 1   
    34    19    20 ar  
    35    20    21 1   
@<TRIPOS>SUBSTRUCTURE
     1 QJZ         1 TEMP              0 ****  ****    0 ROOT
