@<TRIPOS>MOLECULE
QK0
   45    48     1     0     0
SMALL
abcg2


@<TRIPOS>ATOM
      1 C4           4.1820    -0.3740     0.9150 ca         1 QK0       0.136400
      2 C5           3.6790    -0.1210    -0.3700 ca         1 QK0      -0.186000
      3 C6           2.3480    -0.3180    -0.6950 ca         1 QK0      -0.050000
      4 C8           6.0470     0.3040    -0.0000 cc         1 QK0       0.492800
      5 C13          9.6920     1.0770     0.1980 c3         1 QK0      -0.184100
      6 C15         -0.9340    -0.7420     0.9230 ca         1 QK0      -0.038000
      7 C17         -2.5370    -1.4670    -0.6660 ca         1 QK0       0.416000
      8 C26         -5.7360     1.2650    -0.0470 ca         1 QK0       0.015500
      9 C28         -5.3760     2.0380    -2.2680 ca         1 QK0       0.234000
     10 O14          8.1740     0.3770     1.9170 o          1 QK0      -0.507100
     11 N10          7.3540     0.6560    -0.1910 ns         1 QK0      -0.421400
     12 N7           5.5210    -0.1270     1.0890 nd         1 QK0      -0.553100
     13 S9           4.9630     0.4580    -1.3800 ss         1 QK0      -0.032200
     14 C3           3.3130    -0.8440     1.8970 ca         1 QK0      -0.060000
     15 C2           1.9840    -1.0430     1.5810 ca         1 QK0      -0.087000
     16 C1           1.4870    -0.7860     0.2940 cp         1 QK0      -0.043000
     17 C11          0.0630    -1.0090    -0.0100 cp         1 QK0      -0.067000
     18 C19         -0.3460    -1.5200    -1.2390 ca         1 QK0       0.356900
     19 N18         -1.6140    -1.7470    -1.5490 nb         1 QK0      -0.649000
     20 C16         -2.2650    -0.9600     0.6060 ca         1 QK0       0.198000
     21 N21         -3.2710    -0.6660     1.5450 nu         1 QK0      -0.864100
     22 S22         -3.7140     0.9340     1.7520 sy         1 QK0       1.154600
     23 O23         -4.7690     0.9130     2.7450 o          1 QK0      -0.525000
     24 O24         -2.4890     1.6750     1.9810 o          1 QK0      -0.525000
     25 C25         -4.3790     1.4350     0.1980 ca         1 QK0      -0.335500
     26 C27         -6.2440     1.5760    -1.2950 ca         1 QK0      -0.173000
     27 C29         -4.0240     2.2130    -2.0380 ca         1 QK0      -0.173000
     28 C30         -3.5190     1.9090    -0.7850 ca         1 QK0       0.015500
     29 H6           1.9820    -0.0890    -1.6880 ha         1 QK0       0.125000
     30 H13         10.1580     0.2130    -0.2810 hc         1 QK0       0.067700
     31 H13A         9.6040     1.8620    -0.5530 hc         1 QK0       0.067700
     32 H13B        10.3450     1.4180     0.9970 hc         1 QK0       0.067700
     33 H15         -0.6850    -0.3550     1.9020 ha         1 QK0       0.156000
     34 H26         -6.4020     0.8970     0.7210 ha         1 QK0       0.140500
     35 HN10         7.6180     0.9340    -1.1240 hn         1 QK0       0.330500
     36 H3           3.6820    -1.0540     2.8920 ha         1 QK0       0.142000
     37 H2           1.3190    -1.4260     2.3440 ha         1 QK0       0.123000
     38 H19          0.3820    -1.7750    -2.0010 h4         1 QK0       0.033100
     39 HN21        -4.0740    -1.2870     1.5360 hn         1 QK0       0.500000
     40 H27         -7.2980     1.4600    -1.5080 ha         1 QK0       0.140000
     41 H29         -3.3750     2.5850    -2.8200 ha         1 QK0       0.140000
     42 H30         -2.4660     2.0550    -0.5880 ha         1 QK0       0.140500
     43 CL20        -4.1770    -1.7760    -1.1260 cl         1 QK0      -0.163000
     44 C12          8.3570     0.6750     0.7620 c          1 QK0       0.607100
     45 F31         -5.8640     2.3340    -3.4750 f          1 QK0      -0.166000
@<TRIPOS>BOND
     1     1     2 ar  
     2     1    12 1   
     3     1    14 ar  
     4     2     3 ar  
     5     2    13 1   
     6     3    16 ar  
     7     3    29 1   
     8     4    11 1   
     9     4    12 2   
    10     4    13 1   
    11     5    30 1   
    12     5    31 1   
    13     5    32 1   
    14     5    44 1   
    15     6    17 ar  
    16     6    20 ar  
    17     6    33 1   
    18     7    19 ar  
    19     7    20 ar  
    20     7    43 1   
    21     8    25 ar  
    22     8    26 ar  
    23     8    34 1   
    24     9    26 ar  
    25     9    27 ar  
    26     9    45 1   
    27    10    44 2   
    28    11    35 1   
    29    11    44 1   
    30    14    15 ar  
    31    14    36 1   
    32    15    16 ar  
    33    15    37 1   
    34    16    17 1   
    35    17    18 ar  
    36    18    19 ar  
    37    18    38 1   
    38    20    21 1   
    39    21    22 1   
    40    21    39 1   
    41    22    23 2   
    42    22    24 2   
    43    22    25 1   
    44    25    28 ar  
    45    26    40 1   
    46    27    28 ar  
    47    27    41 1   
    48    28    42 1   
@<TRIPOS>SUBSTRUCTURE
     1 QK0         1 TEMP              0 ****  ****    0 ROOT
