@<TRIPOS>MOLECULE
QK0
   45    48     1     0     0
SMALL
No Charge or Current Charge


@<TRIPOS>ATOM
      1 C4           3.6040     0.0290     0.7230 ca         1 QK0       0.136400
      2 C5           3.2330    -0.5230    -0.4820 ca         1 QK0      -0.186000
      3 C6           1.9640    -1.0830    -0.6870 ca         1 QK0      -0.050000
      4 C8           5.4710     0.3730    -0.3970 cc         1 QK0       0.492800
      5 C13          9.0070     1.7050    -0.5040 c3         1 QK0      -0.184100
      6 C15         -1.4810    -1.1280     0.8380 ca         1 QK0      -0.038000
      7 C17         -2.8320    -2.8230    -0.2260 ca         1 QK0       0.416000
      8 C26         -4.5410     1.4730    -0.7550 ca         1 QK0       0.015500
      9 C28         -2.9980     3.0520    -1.7710 ca         1 QK0       0.234000
     10 O14          7.4540     1.7210     1.3250 o          1 QK0      -0.507100
     11 N10          6.7610     0.7830    -0.6630 ns         1 QK0      -0.421400
     12 N7           4.8890     0.5510     0.7950 nd         1 QK0      -0.553100
     13 S9           4.5170    -0.4260    -1.6710 ss         1 QK0      -0.032200
     14 C3           2.6950     0.0400     1.7910 ca         1 QK0      -0.060000
     15 C2           1.4110    -0.5150     1.6150 ca         1 QK0      -0.087000
     16 C1           1.0180    -1.0870     0.3720 cp         1 QK0      -0.043000
     17 C11         -0.3470    -1.6740     0.1850 cp         1 QK0      -0.067000
     18 C19         -0.5600    -2.7980    -0.6550 ca         1 QK0       0.356900
     19 N18         -1.7690    -3.3690    -0.8610 nb         1 QK0      -0.649000
     20 C16         -2.7580    -1.6910     0.6370 ca         1 QK0       0.198000
     21 N21         -3.9090    -1.1550     1.2590 nu         1 QK0      -0.864100
     22 S22         -4.2210     0.4070     1.7880 sy         1 QK0       1.154600
     23 O23         -5.6780     0.4020     1.9240 o          1 QK0      -0.525000
     24 O24         -3.3220     0.6020     2.9270 o          1 QK0      -0.525000
     25 C25         -3.7460     1.4530     0.4090 ca         1 QK0      -0.335500
     26 C27         -4.1630     2.2760    -1.8440 ca         1 QK0      -0.173000
     27 C29         -2.2050     3.0360    -0.6150 ca         1 QK0      -0.173000
     28 C30         -2.5750     2.2380     0.4800 ca         1 QK0       0.015500
     29 H6           1.7110    -1.4960    -1.6610 ha         1 QK0       0.125000
     30 H13          9.4230     0.7720    -0.9010 hc         1 QK0       0.067700
     31 H13A         8.8350     2.2910    -1.4140 hc         1 QK0       0.067700
     32 H13B         9.7120     2.2050     0.1700 hc         1 QK0       0.067700
     33 H15         -1.3610    -0.2680     1.4860 ha         1 QK0       0.156000
     34 H26         -5.4460     0.8690    -0.8200 ha         1 QK0       0.140500
     35 HN10         7.1050     0.6010    -1.5950 hn         1 QK0       0.330500
     36 H3           2.9820     0.4700     2.7470 ha         1 QK0       0.142000
     37 H2           0.7240    -0.5130     2.4570 ha         1 QK0       0.123000
     38 H19          0.2760    -3.2660    -1.1730 h4         1 QK0       0.033100
     39 HN21        -4.8100    -1.5530     1.0170 hn         1 QK0       0.500000
     40 H27         -4.7710     2.2950    -2.7450 ha         1 QK0       0.140000
     41 H29         -1.3040     3.6420    -0.5690 ha         1 QK0       0.140000
     42 H30         -1.9510     2.2350     1.3730 ha         1 QK0       0.140500
     43 Cl20        -4.3770    -3.6080    -0.5520 cl         1 QK0      -0.163000
     44 C12          7.6680     1.4110     0.1620 c          1 QK0       0.607100
     45 F31         -2.6370     3.8210    -2.8220 f          1 QK0      -0.166000
@<TRIPOS>BOND
     1     1     2 ar  
     2     1    12 1   
     3     1    14 ar  
     4     2     3 ar  
     5     2    13 1   
     6     3    16 ar  
     7     3    29 1   
     8     4    11 1   
     9     4    12 2   
    10     4    13 1   
    11     5    30 1   
    12     5    31 1   
    13     5    32 1   
    14     5    44 1   
    15     6    17 ar  
    16     6    20 ar  
    17     6    33 1   
    18     7    19 ar  
    19     7    20 ar  
    20     7    43 1   
    21     8    25 ar  
    22     8    26 ar  
    23     8    34 1   
    24     9    26 ar  
    25     9    27 ar  
    26     9    45 1   
    27    10    44 2   
    28    11    35 1   
    29    11    44 1   
    30    14    15 ar  
    31    14    36 1   
    32    15    16 ar  
    33    15    37 1   
    34    16    17 1   
    35    17    18 ar  
    36    18    19 ar  
    37    18    38 1   
    38    20    21 1   
    39    21    22 1   
    40    21    39 1   
    41    22    23 2   
    42    22    24 2   
    43    22    25 1   
    44    25    28 ar  
    45    26    40 1   
    46    27    28 ar  
    47    27    41 1   
    48    28    42 1   
@<TRIPOS>SUBSTRUCTURE
     1 QK0         1 TEMP              0 ****  ****    0 ROOT
