@<TRIPOS>MOLECULE
QK1
   89    93     1     0     0
SMALL
No Charge or Current Charge


@<TRIPOS>ATOM
      1 C14        -16.7250     2.8210     0.5640 c3         1 QK1      -0.091600
      2 C15        -17.3540     4.6340    -1.1070 c3         1 QK1      -0.091600
      3 C5         -17.1430     0.2150    -4.4120 ca         1 QK1      -0.327500
      4 C16        -18.7990     0.4330    -1.6540 c3         1 QK1       0.220800
      5 C3         -18.7490    -0.1810    -6.2140 ca         1 QK1      -0.107000
      6 C6         -16.6040     1.3000    -5.1310 ca         1 QK1       0.051000
      7 C12        -17.0840     2.2250    -1.9100 c3         1 QK1       0.209800
      8 C2         -18.2170     0.9060    -6.9220 ca         1 QK1       0.207400
      9 C13        -17.5080     3.1420    -0.7310 c3         1 QK1      -0.064700
     10 N1         -18.6930     1.3160    -8.1660 nc         1 QK1      -0.658100
     11 C01        -19.2570    -0.2810     6.3690 c6         1 QK1      -0.124400
     12 C02        -20.2020    -1.4490     6.7150 c6         1 QK1       0.160600
     13 C06        -17.3300    -3.9570     0.3670 ca         1 QK1      -0.077500
     14 C07        -18.7170    -3.7080     0.4130 ca         1 QK1      -0.096300
     15 C08        -19.5660    -4.6320     1.0580 ca         1 QK1      -0.077500
     16 C1         -17.9450     2.3590    -8.5070 cd         1 QK1       0.674100
     17 C17        -19.3350     0.1770    -0.2120 c3         1 QK1       0.154300
     18 C19        -18.8070    -1.1400     0.4430 c3         1 QK1       0.096700
     19 C24        -18.2320    -0.7110     5.3140 c6         1 QK1       0.201300
     20 C27        -18.3210    -3.0910     6.4300 c5         1 QK1       0.394300
     21 C29        -17.6580    -3.8230     4.3240 c5         1 QK1       0.168600
     22 C30        -16.6190    -2.7830     4.8520 c5         1 QK1      -0.106400
     23 C31        -17.4520    -1.9390     5.8640 c5         1 QK1      -0.141700
     24 C32        -19.2920    -2.4520    -0.2370 c3         1 QK1      -0.042100
     25 C33        -16.7980    -5.1140     0.9640 ca         1 QK1      -0.154500
     26 C34        -19.0320    -5.7890     1.6520 ca         1 QK1      -0.154500
     27 C35        -17.6500    -6.0260     1.6020 ca         1 QK1       0.162000
     28 C4         -18.2130    -0.5310    -4.9600 ca         1 QK1      -0.013000
     29 C40        -17.1640     1.6200    -6.3750 ca         1 QK1      -0.235000
     30 C50        -17.6830     3.8540   -11.8850 c3         1 QK1      -0.112600
     31 C60        -18.1880     5.3580    -9.8800 c3         1 QK1      -0.112600
     32 F01        -17.1380    -7.1360     2.1770 f          1 QK1      -0.184000
     33 N11        -17.3450     0.7710    -1.7340 n3         1 QK1      -0.749500
     34 N2         -18.2520     2.9150    -9.7010 nu         1 QK1      -0.879400
     35 N20        -19.1280    -1.1820     1.8780 ns         1 QK1      -0.505900
     36 O01        -19.4940    -2.6320     7.1560 os         1 QK1      -0.439000
     37 O18        -20.7770     0.1930    -0.2120 oh         1 QK1      -0.666000
     38 O22        -17.2410    -0.1740     2.7090 o          1 QK1      -0.537000
     39 O23        -18.9140    -0.9750     4.0700 os         1 QK1      -0.465100
     40 O28        -18.7460    -3.8350     5.2800 os         1 QK1      -0.480000
     41 S1         -16.6520     2.9310    -7.4210 ss         1 QK1      -0.022200
     42 S8         -16.4560    -0.2180    -2.8060 sy         1 QK1       1.169600
     43 H1         -17.0970     3.4230     1.4020 hc         1 QK1       0.039700
     44 H2         -16.8280     1.7640     0.8340 hc         1 QK1       0.039700
     45 H3         -15.6570     3.0320     0.4360 hc         1 QK1       0.039700
     46 H4         -17.6930     5.2780    -0.2870 hc         1 QK1       0.039700
     47 H5         -16.3060     4.8770    -1.3230 hc         1 QK1       0.039700
     48 H6         -17.9530     4.8740    -1.9940 hc         1 QK1       0.039700
     49 H7         -19.3900     1.2470    -2.0950 h1         1 QK1       0.066200
     50 H8         -19.0440    -0.4490    -2.2580 h1         1 QK1       0.066200
     51 H9         -19.5720    -0.7520    -6.6350 ha         1 QK1       0.135000
     52 H10        -15.7740     1.8860    -4.7360 ha         1 QK1       0.147000
     53 H11        -16.0110     2.4050    -2.0640 h1         1 QK1       0.047200
     54 H12        -17.5900     2.5770    -2.8190 h1         1 QK1       0.047200
     55 H13        -18.5740     2.9840    -0.5340 hc         1 QK1       0.048700
     56 H14        -18.7440     0.0610     7.2780 hc         1 QK1       0.062200
     57 H15        -19.8400     0.5730     6.0000 hc         1 QK1       0.062200
     58 H16        -20.9080    -1.1440     7.5000 h1         1 QK1       0.056700
     59 H17        -20.7930    -1.7130     5.8250 h1         1 QK1       0.056700
     60 H18        -16.6650    -3.2560    -0.1330 ha         1 QK1       0.125500
     61 H19        -20.6390    -4.4540     1.1010 ha         1 QK1       0.125500
     62 H20        -18.9790     1.0030     0.4140 h1         1 QK1       0.054700
     63 H21        -17.7120    -1.1150     0.3510 h1         1 QK1       0.096700
     64 H22        -17.5340     0.1270     5.1640 h1         1 QK1       0.082700
     65 H23        -17.7170    -3.7440     7.0750 h2         1 QK1       0.072700
     66 H24        -18.0600    -3.5380     3.3430 h1         1 QK1       0.042700
     67 H25        -17.2250    -4.8290     4.2420 h1         1 QK1       0.042700
     68 H26        -15.7950    -3.3000     5.3590 hc         1 QK1       0.062200
     69 H27        -16.1650    -2.1900     4.0520 hc         1 QK1       0.062200
     70 H28        -16.8040    -1.5360     6.6510 hc         1 QK1       0.076700
     71 H29        -19.0160    -2.4460    -1.2960 hc         1 QK1       0.067700
     72 H30        -20.3880    -2.4840    -0.2170 hc         1 QK1       0.067700
     73 H31        -15.7280    -5.3040     0.9290 ha         1 QK1       0.131000
     74 H32        -19.6860    -6.4990     2.1510 ha         1 QK1       0.131000
     75 H33        -18.6320    -1.3800    -4.4230 ha         1 QK1       0.127000
     76 H34        -16.5070     4.0270   -10.0970 h1         1 QK1       0.064700
     77 H35        -17.2270     2.9070   -12.1980 hc         1 QK1       0.049200
     78 H36        -18.7300     3.8600   -12.2100 hc         1 QK1       0.049200
     79 H37        -17.1590     4.6680   -12.4010 hc         1 QK1       0.049200
     80 H38        -18.0770     5.4670    -8.7950 hc         1 QK1       0.049200
     81 H39        -17.6850     6.2060   -10.3590 hc         1 QK1       0.049200
     82 H40        -19.2560     5.4080   -10.1250 hc         1 QK1       0.049200
     83 H41        -19.0060     2.4320   -10.1790 hn         1 QK1       0.506000
     84 H42        -19.9690    -1.6550     2.1830 hn         1 QK1       0.320500
     85 H43        -21.0610     0.1580     0.7280 ho         1 QK1       0.451000
     86 C21        -18.3160    -0.7250     2.8740 c          1 QK1       0.641100
     87 O10        -15.0630     0.2360    -2.7270 o          1 QK1      -0.538500
     88 C41        -17.5750     4.0290   -10.3600 c3         1 QK1       0.241500
     89 O9         -16.8050    -1.6010    -2.4710 o          1 QK1      -0.538500
@<TRIPOS>BOND
     1     1     9 1   
     2     1    43 1   
     3     1    44 1   
     4     1    45 1   
     5     2     9 1   
     6     2    46 1   
     7     2    47 1   
     8     2    48 1   
     9     3     6 ar  
    10     3    28 ar  
    11     3    42 1   
    12     4    17 1   
    13     4    33 1   
    14     4    49 1   
    15     4    50 1   
    16     5     8 ar  
    17     5    28 ar  
    18     5    51 1   
    19     6    29 ar  
    20     6    52 1   
    21     7     9 1   
    22     7    33 1   
    23     7    53 1   
    24     7    54 1   
    25     8    10 1   
    26     8    29 ar  
    27     9    55 1   
    28    10    16 2   
    29    11    12 1   
    30    11    19 1   
    31    11    56 1   
    32    11    57 1   
    33    12    36 1   
    34    12    58 1   
    35    12    59 1   
    36    13    14 ar  
    37    13    25 ar  
    38    13    60 1   
    39    14    15 ar  
    40    14    24 1   
    41    15    26 ar  
    42    15    61 1   
    43    16    34 1   
    44    16    41 1   
    45    17    18 1   
    46    17    37 1   
    47    17    62 1   
    48    18    24 1   
    49    18    35 1   
    50    18    63 1   
    51    19    23 1   
    52    19    39 1   
    53    19    64 1   
    54    20    23 1   
    55    20    36 1   
    56    20    40 1   
    57    20    65 1   
    58    21    22 1   
    59    21    40 1   
    60    21    66 1   
    61    21    67 1   
    62    22    23 1   
    63    22    68 1   
    64    22    69 1   
    65    23    70 1   
    66    24    71 1   
    67    24    72 1   
    68    25    27 ar  
    69    25    73 1   
    70    26    27 ar  
    71    26    74 1   
    72    27    32 1   
    73    28    75 1   
    74    29    41 1   
    75    30    77 1   
    76    30    78 1   
    77    30    79 1   
    78    30    88 1   
    79    31    80 1   
    80    31    81 1   
    81    31    82 1   
    82    31    88 1   
    83    33    42 1   
    84    34    83 1   
    85    34    88 1   
    86    35    84 1   
    87    35    86 1   
    88    37    85 1   
    89    38    86 2   
    90    39    86 1   
    91    42    87 2   
    92    42    89 2   
    93    76    88 1   
@<TRIPOS>SUBSTRUCTURE
     1 QK1         1 TEMP              0 ****  ****    0 ROOT
