@<TRIPOS>MOLECULE
QK1
   89    93     1     0     0
SMALL
abcg2


@<TRIPOS>ATOM
      1 C14        -17.8290     2.7610     0.2300 c3         1 QK1      -0.091600
      2 C15        -19.1340     4.4480    -1.0990 c3         1 QK1      -0.091600
      3 C5         -17.7800     0.4100    -4.3990 ca         1 QK1      -0.327500
      4 C16        -19.9650     0.0570    -1.5510 c3         1 QK1       0.220800
      5 C3         -19.1020     0.2040    -6.4020 ca         1 QK1      -0.107000
      6 C6         -16.9400     1.3440    -4.9920 ca         1 QK1       0.051000
      7 C12        -18.7730     2.1850    -2.0330 c3         1 QK1       0.209800
      8 C2         -18.2800     1.1440    -7.0290 ca         1 QK1       0.207400
      9 C13        -18.9790     2.9730    -0.7440 c3         1 QK1      -0.064700
     10 N1         -18.4160     1.5830    -8.3100 nc         1 QK1      -0.658100
     11 C01        -17.5910     0.0350     5.8910 c6         1 QK1      -0.124400
     12 C02        -18.7250    -0.4580     6.7680 c6         1 QK1       0.160600
     13 C06        -17.1560    -3.7040     0.1240 ca         1 QK1      -0.077500
     14 C07        -18.4980    -3.7480     0.5020 ca         1 QK1      -0.096300
     15 C08        -18.8980    -4.7530     1.3770 ca         1 QK1      -0.077500
     16 C1         -17.4860     2.4440    -8.6080 cd         1 QK1       0.674100
     17 C17        -20.1390    -0.2490    -0.0600 c3         1 QK1       0.154300
     18 C19        -19.1710    -1.3160     0.4770 c3         1 QK1       0.096700
     19 C24        -17.1940    -1.0210     4.8740 c6         1 QK1       0.201300
     20 C27        -17.9070    -2.6920     6.6790 c5         1 QK1       0.394300
     21 C29        -18.5100    -4.0060     4.8780 c5         1 QK1       0.168600
     22 C30        -17.0460    -3.5810     4.6760 c5         1 QK1      -0.106400
     23 C31        -16.9060    -2.3520     5.5700 c5         1 QK1      -0.141700
     24 C32        -19.4870    -2.7350    -0.0110 c3         1 QK1      -0.042100
     25 C33        -16.2390    -4.6270     0.6060 ca         1 QK1      -0.154500
     26 C34        -17.9990    -5.6910     1.8690 ca         1 QK1      -0.154500
     27 C35        -16.6790    -5.6060     1.4770 ca         1 QK1       0.162000
     28 C4         -18.8490    -0.1610    -5.0960 ca         1 QK1      -0.013000
     29 C40        -17.2070     1.6940    -6.3010 ca         1 QK1      -0.235000
     30 C50        -16.0900     3.9750   -11.6340 c3         1 QK1      -0.112600
     31 C60        -16.8810     5.4360    -9.7380 c3         1 QK1      -0.112600
     32 F01        -15.7940    -6.5010     1.9540 f          1 QK1      -0.184000
     33 N11        -18.7030     0.7330    -1.8400 n3         1 QK1      -0.749500
     34 N2         -17.3520     3.0160    -9.8020 nu         1 QK1      -0.879400
     35 N20        -19.1520    -1.2960     1.9270 ns         1 QK1      -0.505900
     36 O01        -18.3610    -1.6440     7.4570 os         1 QK1      -0.439000
     37 O18        -21.4910    -0.6140     0.0970 oh         1 QK1      -0.666000
     38 O22        -17.0160    -0.5520     2.1790 o          1 QK1      -0.537000
     39 O23        -18.2750    -1.1800     3.9470 os         1 QK1      -0.465100
     40 O28        -18.9860    -3.3160     6.0220 os         1 QK1      -0.480000
     41 S1         -16.3460     2.8160    -7.3120 ss         1 QK1      -0.022200
     42 S8         -17.5300    -0.0410    -2.7080 sy         1 QK1       1.169600
     43 H1         -17.9900     3.3270     1.1490 hc         1 QK1       0.039700
     44 H2         -17.7080     1.7130     0.5040 hc         1 QK1       0.039700
     45 H3         -16.8870     3.0980    -0.2090 hc         1 QK1       0.039700
     46 H4         -19.3080     5.0460    -0.2040 hc         1 QK1       0.039700
     47 H5         -18.2340     4.8310    -1.5850 hc         1 QK1       0.039700
     48 H6         -19.9740     4.6120    -1.7770 hc         1 QK1       0.039700
     49 H7         -20.7790     0.7180    -1.8590 h1         1 QK1       0.066200
     50 H8         -20.0700    -0.8540    -2.1400 h1         1 QK1       0.066200
     51 H9         -19.9260    -0.2380    -6.9460 ha         1 QK1       0.135000
     52 H10        -16.1090     1.7780    -4.4540 ha         1 QK1       0.147000
     53 H11        -17.8440     2.5340    -2.4890 h1         1 QK1       0.047200
     54 H12        -19.5760     2.4100    -2.7440 h1         1 QK1       0.047200
     55 H13        -19.9130     2.6480    -0.2740 hc         1 QK1       0.048700
     56 H14        -16.7200     0.2670     6.5100 hc         1 QK1       0.062200
     57 H15        -17.8780     0.9610     5.3880 hc         1 QK1       0.062200
     58 H16        -18.9570     0.2760     7.5400 h1         1 QK1       0.056700
     59 H17        -19.6350    -0.6070     6.1780 h1         1 QK1       0.056700
     60 H18        -16.8160    -2.9430    -0.5670 ha         1 QK1       0.125500
     61 H19        -19.9350    -4.8100     1.6850 ha         1 QK1       0.125500
     62 H20        -19.9210     0.6700     0.4980 h1         1 QK1       0.054700
     63 H21        -18.1700    -1.0390     0.1470 h1         1 QK1       0.096700
     64 H22        -16.3010    -0.7060     4.3340 h1         1 QK1       0.082700
     65 H23        -17.4420    -3.3900     7.3900 h2         1 QK1       0.072700
     66 H24        -19.1360    -3.7450     4.0230 h1         1 QK1       0.042700
     67 H25        -18.5890    -5.0870     5.0270 h1         1 QK1       0.042700
     68 H26        -16.3710    -4.3650     5.0230 hc         1 QK1       0.062200
     69 H27        -16.8030    -3.3980     3.6290 hc         1 QK1       0.062200
     70 H28        -15.9020    -2.2760     5.9950 hc         1 QK1       0.076700
     71 H29        -19.4950    -2.7470    -1.1010 hc         1 QK1       0.067700
     72 H30        -20.4920    -3.0160     0.3110 hc         1 QK1       0.067700
     73 H31        -15.2000    -4.5850     0.3060 ha         1 QK1       0.131000
     74 H32        -18.3220    -6.4660     2.5520 ha         1 QK1       0.131000
     75 H33        -19.4840    -0.8980    -4.6240 ha         1 QK1       0.127000
     76 H34        -15.4610     3.8280    -9.6070 h1         1 QK1       0.064700
     77 H35        -15.6940     2.9980   -11.9100 hc         1 QK1       0.049200
     78 H36        -16.9910     4.1620   -12.2220 hc         1 QK1       0.049200
     79 H37        -15.3540     4.7300   -11.9050 hc         1 QK1       0.049200
     80 H38        -17.1010     5.4870    -8.6710 hc         1 QK1       0.049200
     81 H39        -16.1210     6.1860    -9.9590 hc         1 QK1       0.049200
     82 H40        -17.7870     5.6990   -10.2870 hc         1 QK1       0.049200
     83 H41        -18.0870     2.8160   -10.4660 hn         1 QK1       0.506000
     84 H42        -19.9180    -1.7320     2.4190 hn         1 QK1       0.320500
     85 H43        -21.7130    -0.6020     1.0330 ho         1 QK1       0.451000
     86 C21        -18.0550    -0.9770     2.6410 c          1 QK1       0.641100
     87 O10        -16.2450     0.4960    -2.2910 o          1 QK1      -0.538500
     88 C41        -16.3880     4.0520   -10.1450 c3         1 QK1       0.241500
     89 O9         -17.7690    -1.4720    -2.5790 o          1 QK1      -0.538500
@<TRIPOS>BOND
     1     1     9 1   
     2     1    43 1   
     3     1    44 1   
     4     1    45 1   
     5     2     9 1   
     6     2    46 1   
     7     2    47 1   
     8     2    48 1   
     9     3     6 ar  
    10     3    28 ar  
    11     3    42 1   
    12     4    17 1   
    13     4    33 1   
    14     4    49 1   
    15     4    50 1   
    16     5     8 ar  
    17     5    28 ar  
    18     5    51 1   
    19     6    29 ar  
    20     6    52 1   
    21     7     9 1   
    22     7    33 1   
    23     7    53 1   
    24     7    54 1   
    25     8    10 1   
    26     8    29 ar  
    27     9    55 1   
    28    10    16 2   
    29    11    12 1   
    30    11    19 1   
    31    11    56 1   
    32    11    57 1   
    33    12    36 1   
    34    12    58 1   
    35    12    59 1   
    36    13    14 ar  
    37    13    25 ar  
    38    13    60 1   
    39    14    15 ar  
    40    14    24 1   
    41    15    26 ar  
    42    15    61 1   
    43    16    34 1   
    44    16    41 1   
    45    17    18 1   
    46    17    37 1   
    47    17    62 1   
    48    18    24 1   
    49    18    35 1   
    50    18    63 1   
    51    19    23 1   
    52    19    39 1   
    53    19    64 1   
    54    20    23 1   
    55    20    36 1   
    56    20    40 1   
    57    20    65 1   
    58    21    22 1   
    59    21    40 1   
    60    21    66 1   
    61    21    67 1   
    62    22    23 1   
    63    22    68 1   
    64    22    69 1   
    65    23    70 1   
    66    24    71 1   
    67    24    72 1   
    68    25    27 ar  
    69    25    73 1   
    70    26    27 ar  
    71    26    74 1   
    72    27    32 1   
    73    28    75 1   
    74    29    41 1   
    75    30    77 1   
    76    30    78 1   
    77    30    79 1   
    78    30    88 1   
    79    31    80 1   
    80    31    81 1   
    81    31    82 1   
    82    31    88 1   
    83    33    42 1   
    84    34    83 1   
    85    34    88 1   
    86    35    84 1   
    87    35    86 1   
    88    37    85 1   
    89    38    86 2   
    90    39    86 1   
    91    42    87 2   
    92    42    89 2   
    93    76    88 1   
@<TRIPOS>SUBSTRUCTURE
     1 QK1         1 TEMP              0 ****  ****    0 ROOT
