@<TRIPOS>MOLECULE
QK3
   56    60     1     0     0
SMALL
No Charge or Current Charge


@<TRIPOS>ATOM
      1 N1         -27.8410     5.8300    27.5650 na         1 QK3      -0.172500
      2 N3         -19.9080     5.7800    27.1340 ns         1 QK3      -0.172000
      3 C4         -21.8070     7.6410    28.9690 c6         1 QK3       0.156600
      4 C5         -22.4820     6.6950    27.9570 c6         1 QK3      -0.107400
      5 C6         -22.1030     5.1990    28.2440 c6         1 QK3      -0.091700
      6 C7         -23.0490     4.2720    27.4040 c3         1 QK3       0.110000
      7 C8         -25.4860     4.9260    27.2430 c          1 QK3       0.575100
      8 C10        -28.3880     6.8180    28.3560 cc         1 QK3      -0.228000
      9 C13        -20.6450     4.8090    27.8070 c          1 QK3       0.598100
     10 C15        -17.8310     4.5840    26.4300 ca         1 QK3       0.312900
     11 C17        -16.7030     6.9510    25.6010 ca         1 QK3      -0.091000
     12 C20        -18.0460     9.4110    25.7990 ca         1 QK3      -0.090000
     13 C21        -18.6730     8.2330    26.2420 ca         1 QK3      -0.089000
     14 C22        -18.0050     6.9890    26.1460 ca         1 QK3       0.000000
     15 C24        -22.3210     3.6090    30.2710 ca         1 QK3      -0.063000
     16 O2         -20.1900     3.7000    28.0570 o          1 QK3      -0.554100
     17 C14        -18.5890     5.7730    26.5820 ca         1 QK3      -0.081000
     18 C19        -16.7520     9.3620    25.2580 ca         1 QK3      -0.105000
     19 C18        -16.0790     8.1340    25.1590 ca         1 QK3      -0.083000
     20 C16        -16.0360     5.7160    25.5040 ca         1 QK3       0.362900
     21 N4         -16.5850     4.5490    25.9060 nb         1 QK3      -0.653000
     22 O          -22.2430     7.3240    30.3010 os         1 QK3      -0.343100
     23 C23        -22.2480     4.9320    29.7720 ca         1 QK3      -0.139300
     24 C3         -22.3060     6.0060    30.7020 ca         1 QK3       0.154100
     25 C2         -22.4650     5.7530    32.0740 ca         1 QK3      -0.134000
     26 C1         -22.5450     4.4340    32.5500 ca         1 QK3      -0.062000
     27 C          -22.4680     3.3650    31.6460 ca         1 QK3       0.087000
     28 Cl         -22.5600     1.7110    32.2370 cl         1 QK3      -0.207000
     29 N          -24.4420     4.2820    27.8730 ns         1 QK3      -0.505900
     30 O1         -25.3380     5.5190    26.1820 o          1 QK3      -0.577100
     31 C9         -26.8330     4.8330    27.9820 c3         1 QK3      -0.004400
     32 C12        -28.4180     5.9390    26.3140 cc         1 QK3       0.411400
     33 N2         -29.2930     6.9360    26.2860 nd         1 QK3      -0.670000
     34 C11        -29.2750     7.4860    27.5510 cd         1 QK3       0.239900
     35 H1         -20.4010     6.6510    26.9970 hn         1 QK3       0.160000
     36 H2         -20.7130     7.5490    28.9270 h1         1 QK3       0.067200
     37 H3         -22.0670     8.6860    28.7500 h1         1 QK3       0.067200
     38 H4         -22.2450     6.9880    26.9240 hc         1 QK3       0.070700
     39 H5         -23.5660     6.8370    28.0560 hc         1 QK3       0.070700
     40 H6         -22.6910     3.2350    27.4490 h1         1 QK3       0.066700
     41 H7         -23.0060     4.5740    26.3480 h1         1 QK3       0.066700
     42 H8         -28.1210     6.9730    29.3940 h4         1 QK3       0.155000
     43 H10        -18.5670    10.3630    25.8750 ha         1 QK3       0.116000
     44 H11        -19.6750     8.3070    26.6550 ha         1 QK3       0.117000
     45 H12        -22.2590     2.7570    29.6000 ha         1 QK3       0.127000
     46 H13        -16.2700    10.2760    24.9160 ha         1 QK3       0.119000
     47 H14        -15.0750     8.1030    24.7390 ha         1 QK3       0.119000
     48 H15        -15.0310     5.6560    25.0870 h4         1 QK3       0.023100
     49 H16        -22.5220     6.5850    32.7710 ha         1 QK3       0.136000
     50 H17        -22.6630     4.2420    33.6130 ha         1 QK3       0.135000
     51 H18        -24.6520     3.8210    28.7510 hn         1 QK3       0.324500
     52 H19        -27.2330     3.8240    27.8240 h1         1 QK3       0.078200
     53 H20        -26.6380     4.9530    29.0550 h1         1 QK3       0.078200
     54 H21        -28.1660     5.2760    25.4950 h5         1 QK3       0.055100
     55 H22        -29.9030     8.3290    27.8140 h4         1 QK3       0.040100
     56 H9         -18.2230     3.6120    26.7160 h4         1 QK3       0.020100
@<TRIPOS>BOND
     1     1     8 1   
     2     1    31 1   
     3     1    32 1   
     4     2     9 1   
     5     2    17 1   
     6     2    35 1   
     7     3     4 1   
     8     3    22 1   
     9     3    36 1   
    10     3    37 1   
    11     4     5 1   
    12     4    38 1   
    13     4    39 1   
    14     5     6 1   
    15     5     9 1   
    16     5    23 1   
    17     6    29 1   
    18     6    40 1   
    19     6    41 1   
    20     7    29 1   
    21     7    30 2   
    22     7    31 1   
    23     8    34 2   
    24     8    42 1   
    25     9    16 2   
    26    10    17 ar  
    27    10    21 ar  
    28    10    56 1   
    29    11    14 ar  
    30    11    19 ar  
    31    11    20 ar  
    32    12    13 ar  
    33    12    18 ar  
    34    12    43 1   
    35    13    14 ar  
    36    13    44 1   
    37    14    17 ar  
    38    15    23 ar  
    39    15    27 ar  
    40    15    45 1   
    41    18    19 ar  
    42    18    46 1   
    43    19    47 1   
    44    20    21 ar  
    45    20    48 1   
    46    22    24 1   
    47    23    24 ar  
    48    24    25 ar  
    49    25    26 ar  
    50    25    49 1   
    51    26    27 ar  
    52    26    50 1   
    53    27    28 1   
    54    29    51 1   
    55    31    52 1   
    56    31    53 1   
    57    32    33 2   
    58    32    54 1   
    59    33    34 1   
    60    34    55 1   
@<TRIPOS>SUBSTRUCTURE
     1 QK3         1 TEMP              0 ****  ****    0 ROOT
