@<TRIPOS>MOLECULE
QK3
   56    60     1     0     0
SMALL
abcg2


@<TRIPOS>ATOM
      1 N1         -27.6400     5.4740    27.5580 na         1 QK3      -0.172500
      2 N3         -20.3460     5.6390    26.5470 ns         1 QK3      -0.172000
      3 C4         -22.2990     8.0030    29.0370 c6         1 QK3       0.156600
      4 C5         -22.7070     7.0010    27.9820 c6         1 QK3      -0.107400
      5 C6         -22.0990     5.6130    28.2740 c6         1 QK3      -0.091700
      6 C7         -22.8620     4.5350    27.4510 c3         1 QK3       0.110000
      7 C8         -25.3010     4.7890    27.2050 c          1 QK3       0.575100
      8 C10        -27.7200     6.7490    28.0720 cc         1 QK3      -0.228000
      9 C13        -20.6030     5.6250    27.8810 c          1 QK3       0.598100
     10 C15        -18.5990     4.5220    25.3210 ca         1 QK3       0.312900
     11 C17        -16.8770     6.6330    25.5620 ca         1 QK3      -0.091000
     12 C20        -17.6250     8.9880    26.8590 ca         1 QK3      -0.090000
     13 C21        -18.5290     7.9580    26.7810 ca         1 QK3      -0.089000
     14 C22        -18.1720     6.7500    26.1400 ca         1 QK3       0.000000
     15 C24        -21.9870     4.0280    30.2500 ca         1 QK3      -0.063000
     16 O2         -19.7110     5.6610    28.7150 o          1 QK3      -0.554100
     17 C14        -19.0310     5.6280    26.0080 ca         1 QK3      -0.081000
     18 C19        -16.3310     8.8640    26.3060 ca         1 QK3      -0.105000
     19 C18        -15.9650     7.7100    25.6640 ca         1 QK3      -0.083000
     20 C16        -16.5500     5.4360    24.8820 ca         1 QK3       0.362900
     21 N4         -17.3720     4.4200    24.7510 nb         1 QK3      -0.653000
     22 O          -22.7950     7.6100    30.3270 os         1 QK3      -0.343100
     23 C23        -22.2150     5.3170    29.7640 ca         1 QK3      -0.139300
     24 C3         -22.5800     6.3120    30.6770 ca         1 QK3       0.154100
     25 C2         -22.7560     6.0050    32.0290 ca         1 QK3      -0.134000
     26 C1         -22.5460     4.7200    32.4940 ca         1 QK3      -0.062000
     27 C          -22.1500     3.7390    31.5930 ca         1 QK3       0.087000
     28 CL         -21.8550     2.1080    32.1650 cl         1 QK3      -0.207000
     29 N          -24.2280     4.3740    27.9020 ns         1 QK3      -0.505900
     30 O1         -25.2460     5.3370    26.1100 o          1 QK3      -0.577100
     31 C9         -26.6400     4.4860    27.8870 c3         1 QK3      -0.004400
     32 C12        -28.6140     5.3590    26.6190 cc         1 QK3       0.411400
     33 N2         -29.3170     6.4670    26.5090 nd         1 QK3      -0.670000
     34 C11        -28.7620     7.3460    27.4170 cd         1 QK3       0.239900
     35 H1         -21.1050     5.5260    25.8930 hn         1 QK3       0.160000
     36 H2         -21.2120     8.1050    29.0990 h1         1 QK3       0.067200
     37 H3         -22.7340     8.9820    28.8450 h1         1 QK3       0.067200
     38 H4         -22.4020     7.3530    26.9970 hc         1 QK3       0.070700
     39 H5         -23.7940     6.9190    27.9820 hc         1 QK3       0.070700
     40 H6         -22.3460     3.5780    27.5110 h1         1 QK3       0.066700
     41 H7         -22.9130     4.8240    26.4040 h1         1 QK3       0.066700
     42 H8         -27.0440     7.0960    28.8350 h4         1 QK3       0.155000
     43 H10        -17.9070     9.9110    27.3510 ha         1 QK3       0.116000
     44 H11        -19.5160     8.0660    27.2050 ha         1 QK3       0.117000
     45 H12        -21.6810     3.2420    29.5740 ha         1 QK3       0.127000
     46 H13        -15.6350     9.6900    26.3850 ha         1 QK3       0.119000
     47 H14        -14.9800     7.6050    25.2250 ha         1 QK3       0.119000
     48 H15        -15.5650     5.3410    24.4330 h4         1 QK3       0.023100
     49 H16        -23.0510     6.7950    32.7070 ha         1 QK3       0.136000
     50 H17        -22.6790     4.4850    33.5410 ha         1 QK3       0.135000
     51 H18        -24.3760     3.9690    28.8130 hn         1 QK3       0.324500
     52 H19        -26.9840     3.5130    27.5350 h1         1 QK3       0.078200
     53 H20        -26.5220     4.4310    28.9680 h1         1 QK3       0.078200
     54 H21        -28.7600     4.4480    26.0590 h5         1 QK3       0.055100
     55 H22        -29.1450     8.3450    27.5480 h4         1 QK3       0.040100
     56 H9         -19.2570     3.6670    25.2140 h4         1 QK3       0.020100
@<TRIPOS>BOND
     1     1     8 1   
     2     1    31 1   
     3     1    32 1   
     4     2     9 1   
     5     2    17 1   
     6     2    35 1   
     7     3     4 1   
     8     3    22 1   
     9     3    36 1   
    10     3    37 1   
    11     4     5 1   
    12     4    38 1   
    13     4    39 1   
    14     5     6 1   
    15     5     9 1   
    16     5    23 1   
    17     6    29 1   
    18     6    40 1   
    19     6    41 1   
    20     7    29 1   
    21     7    30 2   
    22     7    31 1   
    23     8    34 2   
    24     8    42 1   
    25     9    16 2   
    26    10    17 ar  
    27    10    21 ar  
    28    10    56 1   
    29    11    14 ar  
    30    11    19 ar  
    31    11    20 ar  
    32    12    13 ar  
    33    12    18 ar  
    34    12    43 1   
    35    13    14 ar  
    36    13    44 1   
    37    14    17 ar  
    38    15    23 ar  
    39    15    27 ar  
    40    15    45 1   
    41    18    19 ar  
    42    18    46 1   
    43    19    47 1   
    44    20    21 ar  
    45    20    48 1   
    46    22    24 1   
    47    23    24 ar  
    48    24    25 ar  
    49    25    26 ar  
    50    25    49 1   
    51    26    27 ar  
    52    26    50 1   
    53    27    28 1   
    54    29    51 1   
    55    31    52 1   
    56    31    53 1   
    57    32    33 2   
    58    32    54 1   
    59    33    34 1   
    60    34    55 1   
@<TRIPOS>SUBSTRUCTURE
     1 QK3         1 TEMP              0 ****  ****    0 ROOT
