@<TRIPOS>MOLECULE
QK5
   58    63     1     0     0
SMALL
abcg2


@<TRIPOS>ATOM
      1 N1          -6.9980     0.2610     1.1740 nb         1 QK5      -0.685000
      2 N3          -0.0370    -0.1140     1.0130 nh         1 QK5      -0.759300
      3 C4          -4.5730     0.5790     1.1450 ca         1 QK5      -0.120800
      4 C5          -4.5510     0.6470     2.5360 ca         1 QK5      -0.029000
      5 C6          -4.3220     0.4910    -1.0880 cc         1 QK5      -0.025300
      6 C7          -3.6160     0.6470     0.0750 cd         1 QK5      -0.116400
      7 C8          -2.1400     0.8530     0.2000 c6         1 QK5      -0.015500
      8 C10          0.3090     1.0790     1.7660 c6         1 QK5       0.218800
      9 C13         -3.8570     0.4610    -2.4980 c3         1 QK5      -0.046900
     10 C15          2.9630    -0.8420    -0.6540 ca         1 QK5       0.251800
     11 C17          1.2330    -2.1920    -1.4960 ca         1 QK5       0.153900
     12 C20          6.2180     0.8190     0.1210 ca         1 QK5      -0.087800
     13 C21          6.7660     0.0520    -0.9230 ca         1 QK5      -0.153000
     14 C22          7.0480     1.6970     0.8310 ca         1 QK5      -0.064000
     15 C24          8.9090     1.0180    -0.5560 ca         1 QK5      -0.095000
     16 C19          4.8240     0.5630     0.2960 cc         1 QK5      -0.115200
     17 C23          8.3810     1.7900     0.4890 ca         1 QK5      -0.117000
     18 C25          8.1110     0.1440    -1.2700 ca         1 QK5      -0.084000
     19 S1           5.5690    -0.9580    -1.6580 ss         1 QK5       0.068400
     20 C18          4.3400    -0.3590    -0.5760 cd         1 QK5      -0.141200
     21 N4           2.0990    -0.2690     0.1730 nb         1 QK5      -0.256000
     22 C16          2.5720    -1.8420    -1.5410 ca         1 QK5      -0.281000
     23 N5           0.3600    -1.6330    -0.6810 nb         1 QK5      -0.245000
     24 C14          0.8300    -0.6800     0.1400 ca         1 QK5       0.391900
     25 C9          -1.4670    -0.3300     0.9110 c6         1 QK5       0.222800
     26 C11         -0.2810     2.3160     1.0990 c6         1 QK5      -0.106400
     27 C12         -1.7870     2.1670     0.9090 c6         1 QK5      -0.071400
     28 C1          -5.7550     0.5220     3.2120 ca         1 QK5      -0.194000
     29 C2          -6.9400     0.3340     2.4980 ca         1 QK5       0.359900
     30 C3          -5.8400     0.3860     0.5560 ca         1 QK5       0.379500
     31 N2          -5.6690     0.3500    -0.7980 na         1 QK5      -0.207400
     32 C27         -6.9070    -1.3290    -1.9850 c1         1 QK5       0.273900
     33 N6          -7.0390    -2.4550    -2.1760 n1         1 QK5      -0.434000
     34 H5          -3.6310     0.7930     3.0890 ha         1 QK5       0.120000
     35 H8          -1.7110     0.8970    -0.8060 hc         1 QK5       0.057700
     36 H10         -0.1000     0.9680     2.7760 h1         1 QK5       0.064200
     37 H10A         1.3880     1.1550     1.8570 h1         1 QK5       0.064200
     38 H13         -4.2970     1.2690    -3.0860 hc         1 QK5       0.055367
     39 H13A        -2.7770     0.5670    -2.5530 hc         1 QK5       0.055367
     40 H13B        -4.1180    -0.4800    -2.9890 hc         1 QK5       0.055367
     41 H17          0.8500    -2.9640    -2.1560 h4         1 QK5       0.021100
     42 H24          9.9570     1.1060    -0.8080 ha         1 QK5       0.114000
     43 H19          4.2090     1.0460     1.0420 ha         1 QK5       0.220000
     44 H23          9.0290     2.4660     1.0290 ha         1 QK5       0.115000
     45 H25          8.5230    -0.4500    -2.0760 ha         1 QK5       0.122000
     46 H16          3.2510    -2.3300    -2.2260 ha         1 QK5       0.138000
     47 H9          -1.6650    -1.2580     0.3820 h1         1 QK5       0.070200
     48 H9A         -1.8650    -0.4410     1.9250 h1         1 QK5       0.070200
     49 H11         -0.0630     3.1950     1.7090 hc         1 QK5       0.050700
     50 H11A         0.2070     2.4700     0.1310 hc         1 QK5       0.050700
     51 H12         -2.1870     3.0090     0.3410 hc         1 QK5       0.044700
     52 H12A        -2.2720     2.1990     1.8890 hc         1 QK5       0.044700
     53 H1          -5.7870     0.5680     4.2910 ha         1 QK5       0.123000
     54 H2          -7.8800     0.2350     3.0280 h4         1 QK5       0.020100
     55 C26         -6.7240     0.1040    -1.7360 c3         1 QK5       0.150700
     56 H22          6.6410     2.2920     1.6370 ha         1 QK5       0.118000
     57 H26         -7.6600     0.5100    -1.3510 h1         1 QK5       0.092200
     58 H26A        -6.5240     0.6020    -2.6850 h1         1 QK5       0.092200
@<TRIPOS>BOND
     1     1    29 ar  
     2     1    30 ar  
     3     2     8 1   
     4     2    24 1   
     5     2    25 1   
     6     3     4 ar  
     7     3     6 1   
     8     3    30 ar  
     9     4    28 ar  
    10     4    34 1   
    11     5     6 2   
    12     5     9 1   
    13     5    31 1   
    14     6     7 1   
    15     7    25 1   
    16     7    27 1   
    17     7    35 1   
    18     8    26 1   
    19     8    36 1   
    20     8    37 1   
    21     9    38 1   
    22     9    39 1   
    23     9    40 1   
    24    10    20 1   
    25    10    21 ar  
    26    10    22 ar  
    27    11    22 ar  
    28    11    23 ar  
    29    11    41 1   
    30    12    13 ar  
    31    12    14 ar  
    32    12    16 1   
    33    13    18 ar  
    34    13    19 1   
    35    14    17 ar  
    36    14    56 1   
    37    15    17 ar  
    38    15    18 ar  
    39    15    42 1   
    40    16    20 2   
    41    16    43 1   
    42    17    44 1   
    43    18    45 1   
    44    19    20 1   
    45    21    24 ar  
    46    22    46 1   
    47    23    24 ar  
    48    25    47 1   
    49    25    48 1   
    50    26    27 1   
    51    26    49 1   
    52    26    50 1   
    53    27    51 1   
    54    27    52 1   
    55    28    29 ar  
    56    28    53 1   
    57    29    54 1   
    58    30    31 1   
    59    31    55 1   
    60    32    33 3   
    61    32    55 1   
    62    55    57 1   
    63    55    58 1   
@<TRIPOS>SUBSTRUCTURE
     1 QK5         1 TEMP              0 ****  ****    0 ROOT
