@<TRIPOS>MOLECULE
QK5
   58    63     1     0     0
SMALL
No Charge or Current Charge


@<TRIPOS>ATOM
      1 N1          -7.0730     0.1910     1.2430 nb         1 QK5      -0.685000
      2 N3          -0.0580    -0.1310     1.0680 nh         1 QK5      -0.759300
      3 C4          -4.7000     0.5130     1.1420 ca         1 QK5      -0.120800
      4 C5          -4.5670     0.5470     2.5370 ca         1 QK5      -0.029000
      5 C6          -4.3480     0.5200    -1.1440 cc         1 QK5      -0.025300
      6 C7          -3.7100     0.6300     0.0870 cd         1 QK5      -0.116400
      7 C8          -2.2060     0.8330     0.2140 c6         1 QK5      -0.015500
      8 C10          0.2690     1.1220     1.8170 c6         1 QK5       0.218800
      9 C13         -3.7670     0.5590    -2.5380 c3         1 QK5      -0.046900
     10 C15          3.0450    -0.9340    -0.5770 ca         1 QK5       0.251800
     11 C17          1.3100    -2.4060    -1.3540 ca         1 QK5       0.153900
     12 C20          6.3020     0.8710     0.0270 ca         1 QK5      -0.087800
     13 C21          6.8670     0.0160    -0.9000 ca         1 QK5      -0.153000
     14 C22          7.0740     1.8560     0.6630 ca         1 QK5      -0.064000
     15 C24          9.0170     1.0880    -0.6080 ca         1 QK5      -0.095000
     16 C19          4.8950     0.6230     0.2370 cc         1 QK5      -0.115200
     17 C23          8.4420     1.9620     0.3400 ca         1 QK5      -0.117000
     18 C25          8.2270     0.1040    -1.2360 ca         1 QK5      -0.084000
     19 S1           5.7120    -1.1480    -1.5770 ss         1 QK5       0.068400
     20 C18          4.4320    -0.4260    -0.5490 cd         1 QK5      -0.141200
     21 N4           2.1500    -0.3290     0.2300 nb         1 QK5      -0.256000
     22 C16          2.6510    -2.0020    -1.4040 ca         1 QK5      -0.281000
     23 N5           0.4220    -1.7980    -0.5480 nb         1 QK5      -0.245000
     24 C14          0.8780    -0.7800     0.2130 ca         1 QK5       0.391900
     25 C9          -1.5360    -0.3550     0.9590 c6         1 QK5       0.222800
     26 C11         -0.3390     2.3450     1.0860 c6         1 QK5      -0.106400
     27 C12         -1.8700     2.1860     0.9010 c6         1 QK5      -0.071400
     28 C1          -5.7530     0.3940     3.2770 ca         1 QK5      -0.194000
     29 C2          -6.9750     0.2190     2.5960 ca         1 QK5       0.359900
     30 C3          -5.9280     0.3400     0.5410 ca         1 QK5       0.379500
     31 N2          -5.7140     0.3530    -0.8300 na         1 QK5      -0.207400
     32 C27         -7.0770    -1.1920    -2.1910 c1         1 QK5       0.273900
     33 N6          -7.2480    -2.2880    -2.5520 n1         1 QK5      -0.434000
     34 H5          -3.6090     0.6820     3.0310 ha         1 QK5       0.120000
     35 H8          -1.7560     0.8660    -0.7870 hc         1 QK5       0.057700
     36 H10         -0.1480     1.0660     2.8340 h1         1 QK5       0.064200
     37 H10A         1.3510     1.2690     1.9440 h1         1 QK5       0.064200
     38 H13         -3.3860     1.5600    -2.7690 hc         1 QK5       0.055367
     39 H13A        -2.9360    -0.1500    -2.6310 hc         1 QK5       0.055367
     40 H13B        -4.5040     0.2950    -3.3040 hc         1 QK5       0.055367
     41 H17          0.9400    -3.2260    -1.9680 h4         1 QK5       0.021100
     42 H24         10.0740     1.1730    -0.8540 ha         1 QK5       0.114000
     43 H19          4.2690     1.1860     0.9240 ha         1 QK5       0.220000
     44 H23          9.0550     2.7200     0.8220 ha         1 QK5       0.115000
     45 H25          8.6640    -0.5730    -1.9670 ha         1 QK5       0.122000
     46 H16          3.3470    -2.5090    -2.0640 ha         1 QK5       0.138000
     47 H9          -1.7830    -1.2920     0.4390 h1         1 QK5       0.070200
     48 H9A         -1.9660    -0.4530     1.9650 h1         1 QK5       0.070200
     49 H11         -0.1230     3.2610     1.6520 hc         1 QK5       0.050700
     50 H11A         0.1440     2.4610     0.1060 hc         1 QK5       0.050700
     51 H12         -2.2620     3.0180     0.3000 hc         1 QK5       0.044700
     52 H12A        -2.3610     2.2530     1.8800 hc         1 QK5       0.044700
     53 H1          -5.7340     0.4090     4.3630 ha         1 QK5       0.123000
     54 H2          -7.9050     0.0980     3.1510 h4         1 QK5       0.020100
     55 C26         -6.8460     0.1960    -1.7690 c3         1 QK5       0.150700
     56 H22          6.6250     2.5280     1.3920 ha         1 QK5       0.118000
     57 H26         -7.7640     0.5720    -1.3030 h1         1 QK5       0.092200
     58 H26A        -6.6640     0.8080    -2.6600 h1         1 QK5       0.092200
@<TRIPOS>BOND
     1     1    29 ar  
     2     1    30 ar  
     3     2     8 1   
     4     2    24 1   
     5     2    25 1   
     6     3     4 ar  
     7     3     6 1   
     8     3    30 ar  
     9     4    28 ar  
    10     4    34 1   
    11     5     6 2   
    12     5     9 1   
    13     5    31 1   
    14     6     7 1   
    15     7    25 1   
    16     7    27 1   
    17     7    35 1   
    18     8    26 1   
    19     8    36 1   
    20     8    37 1   
    21     9    38 1   
    22     9    39 1   
    23     9    40 1   
    24    10    20 1   
    25    10    21 ar  
    26    10    22 ar  
    27    11    22 ar  
    28    11    23 ar  
    29    11    41 1   
    30    12    13 ar  
    31    12    14 ar  
    32    12    16 1   
    33    13    18 ar  
    34    13    19 1   
    35    14    17 ar  
    36    14    56 1   
    37    15    17 ar  
    38    15    18 ar  
    39    15    42 1   
    40    16    20 2   
    41    16    43 1   
    42    17    44 1   
    43    18    45 1   
    44    19    20 1   
    45    21    24 ar  
    46    22    46 1   
    47    23    24 ar  
    48    25    47 1   
    49    25    48 1   
    50    26    27 1   
    51    26    49 1   
    52    26    50 1   
    53    27    51 1   
    54    27    52 1   
    55    28    29 ar  
    56    28    53 1   
    57    29    54 1   
    58    30    31 1   
    59    31    55 1   
    60    32    33 3   
    61    32    55 1   
    62    55    57 1   
    63    55    58 1   
@<TRIPOS>SUBSTRUCTURE
     1 QK5         1 TEMP              0 ****  ****    0 ROOT
