@<TRIPOS>MOLECULE
QK6
   38    41     1     0     0
SMALL
abcg2


@<TRIPOS>ATOM
      1 C17        -46.2890   -29.4550     6.0880 ca         1 QK6       0.187500
      2 C14        -48.7220   -28.6300     3.4550 ca         1 QK6      -0.035000
      3 C13        -50.1000   -28.6060     3.6270 ca         1 QK6      -0.176000
      4 C12        -50.6390   -28.9750     4.8550 ca         1 QK6       0.178000
      5 C11        -49.8800   -29.3470     5.9460 ca         1 QK6      -0.183000
      6 C10        -48.5030   -29.3540     5.7560 ca         1 QK6       0.000800
      7 C19        -44.0830   -29.2310     5.9470 ca         1 QK6       0.176900
      8 C02        -43.3340   -26.4690    -1.3840 c          1 QK6       0.720000
      9 C03        -43.0620   -27.2680    -0.0920 c3         1 QK6      -0.201400
     10 C04        -44.3160   -27.6650     0.6570 c6         1 QK6       0.172300
     11 C05        -44.0080   -28.3170     2.0000 c6         1 QK6       0.165800
     12 C07        -45.2760   -28.9520     3.9890 ca         1 QK6       0.422900
     13 C08        -46.4670   -29.1340     4.7230 cp         1 QK6      -0.222000
     14 C09        -47.8980   -29.0270     4.5110 cp         1 QK6      -0.052000
     15 C21        -46.0260   -29.6380     1.7620 c6         1 QK6       0.165800
     16 C22        -46.2780   -28.9620     0.4290 c6         1 QK6       0.149600
     17 F15        -51.9910   -28.9540     4.9930 f          1 QK6      -0.192000
     18 N06        -45.2560   -28.7450     2.6330 nh         1 QK6      -0.750300
     19 N16        -47.5110   -29.6230     6.6770 na         1 QK6      -0.337300
     20 N18        -45.1200   -29.5270     6.7270 nb         1 QK6      -0.252000
     21 N20        -44.0970   -28.9600     4.6430 nb         1 QK6      -0.271000
     22 O01        -42.6480   -26.7720    -2.3940 o          1 QK6      -0.736000
     23 O23        -45.0540   -28.5690    -0.1790 os         1 QK6      -0.429000
     24 O24        -44.1970   -25.5560    -1.3230 o          1 QK6      -0.736000
     25 H141       -48.3090   -28.3160     2.5080 ha         1 QK6       0.138000
     26 H131       -50.7590   -28.3020     2.8250 ha         1 QK6       0.133000
     27 H111       -50.3390   -29.6010     6.8920 ha         1 QK6       0.130000
     28 H191       -43.1080   -29.2260     6.4230 h5         1 QK6       0.043100
     29 H031       -42.4560   -26.6350     0.5640 hc         1 QK6       0.032700
     30 H032       -42.4750   -28.1580    -0.3240 hc         1 QK6       0.032700
     31 H041       -44.9350   -26.7770     0.8310 h1         1 QK6       0.065700
     32 H051       -43.3340   -29.1700     1.8530 h1         1 QK6       0.057200
     33 H052       -43.5110   -27.6000     2.6480 h1         1 QK6       0.057200
     34 H211       -45.4490   -30.5580     1.5970 h1         1 QK6       0.045200
     35 H212       -46.9640   -29.9190     2.2310 h1         1 QK6       0.045200
     36 H222       -46.7670   -29.6530    -0.2570 h1         1 QK6       0.046200
     37 H221       -46.9210   -28.0830     0.5690 h1         1 QK6       0.046200
     38 H161       -47.6540   -29.8190     7.6560 hn         1 QK6       0.361000
@<TRIPOS>BOND
     1     1    13 ar  
     2     1    19 1   
     3     1    20 ar  
     4     2     3 ar  
     5     2    14 ar  
     6     2    25 1   
     7     3     4 ar  
     8     3    26 1   
     9     4     5 ar  
    10     4    17 1   
    11     5     6 ar  
    12     5    27 1   
    13     6    14 ar  
    14     6    19 1   
    15     7    20 ar  
    16     7    21 ar  
    17     7    28 1   
    18     8     9 1   
    19     8    22 1   
    20     8    24 1   
    21     9    10 1   
    22     9    29 1   
    23     9    30 1   
    24    10    11 1   
    25    10    23 1   
    26    10    31 1   
    27    11    18 1   
    28    11    32 1   
    29    11    33 1   
    30    12    13 ar  
    31    12    18 1   
    32    12    21 ar  
    33    13    14 1   
    34    15    16 1   
    35    15    18 1   
    36    15    34 1   
    37    15    35 1   
    38    16    23 1   
    39    16    36 1   
    40    16    37 1   
    41    19    38 1   
@<TRIPOS>SUBSTRUCTURE
     1 QK6         1 TEMP              0 ****  ****    0 ROOT
