@<TRIPOS>MOLECULE
QK6
   38    41     1     0     0
SMALL
No Charge or Current Charge


@<TRIPOS>ATOM
      1 C17        -46.2800   -29.5350     6.2290 ca         1 QK6       0.187500
      2 C14        -48.5170   -28.5300     3.4390 ca         1 QK6      -0.035000
      3 C13        -49.9220   -28.3880     3.5030 ca         1 QK6      -0.176000
      4 C12        -50.6180   -28.6660     4.7030 ca         1 QK6       0.178000
      5 C11        -49.9300   -29.0780     5.8620 ca         1 QK6      -0.183000
      6 C10        -48.5440   -29.2140     5.7620 ca         1 QK6       0.000800
      7 C19        -44.0250   -29.6430     5.9820 ca         1 QK6       0.176900
      8 C02        -43.6760   -26.2570    -1.3580 c          1 QK6       0.720000
      9 C03        -43.2380   -26.9800    -0.0810 c3         1 QK6      -0.201400
     10 C04        -44.4550   -27.6330     0.6260 c6         1 QK6       0.172300
     11 C05        -44.1140   -28.1090     2.0750 c6         1 QK6       0.165800
     12 C07        -45.2490   -29.1160     4.0900 ca         1 QK6       0.422900
     13 C08        -46.4170   -29.1950     4.8800 cp         1 QK6      -0.222000
     14 C09        -47.8340   -28.9700     4.5920 cp         1 QK6      -0.052000
     15 C21        -45.7950   -29.9320     1.8010 c6         1 QK6       0.165800
     16 C22        -46.0640   -29.4040     0.3600 c6         1 QK6       0.149600
     17 F15        -51.9600   -28.5170     4.7440 f          1 QK6      -0.192000
     18 N06        -45.2460   -28.8690     2.7010 nh         1 QK6      -0.750300
     19 N16        -47.5900   -29.5570     6.7270 na         1 QK6      -0.337300
     20 N18        -45.0910   -29.7640     6.8050 nb         1 QK6      -0.252000
     21 N20        -44.0430   -29.3380     4.6630 nb         1 QK6      -0.271000
     22 O01        -43.5970   -26.8490    -2.4240 o          1 QK6      -0.736000
     23 O23        -44.8880   -28.7560    -0.1760 os         1 QK6      -0.429000
     24 O24        -44.0950   -25.1150    -1.2510 o          1 QK6      -0.736000
     25 H141       -47.9780   -28.2900     2.5270 ha         1 QK6       0.138000
     26 H131       -50.4720   -28.0550     2.6280 ha         1 QK6       0.133000
     27 H111       -50.4570   -29.2730     6.7910 ha         1 QK6       0.130000
     28 H191       -43.0470   -29.8200     6.4260 h5         1 QK6       0.043100
     29 H031       -42.8480   -26.2420     0.6310 hc         1 QK6       0.032700
     30 H032       -42.5210   -27.7780    -0.3100 hc         1 QK6       0.032700
     31 H041       -45.2700   -26.8950     0.6800 h1         1 QK6       0.065700
     32 H051       -43.2130   -28.7390     2.0380 h1         1 QK6       0.057200
     33 H052       -43.8720   -27.2260     2.6840 h1         1 QK6       0.057200
     34 H211       -45.0830   -30.7680     1.7410 h1         1 QK6       0.045200
     35 H212       -46.7320   -30.3370     2.2090 h1         1 QK6       0.045200
     36 H222       -46.3440   -30.2390    -0.2960 h1         1 QK6       0.046200
     37 H221       -46.8960   -28.6860     0.3710 h1         1 QK6       0.046200
     38 H161       -47.8140   -29.7890     7.6870 hn         1 QK6       0.361000
@<TRIPOS>BOND
     1     1    13 ar  
     2     1    19 1   
     3     1    20 ar  
     4     2     3 ar  
     5     2    14 ar  
     6     2    25 1   
     7     3     4 ar  
     8     3    26 1   
     9     4     5 ar  
    10     4    17 1   
    11     5     6 ar  
    12     5    27 1   
    13     6    14 ar  
    14     6    19 1   
    15     7    20 ar  
    16     7    21 ar  
    17     7    28 1   
    18     8     9 1   
    19     8    22 1   
    20     8    24 1   
    21     9    10 1   
    22     9    29 1   
    23     9    30 1   
    24    10    11 1   
    25    10    23 1   
    26    10    31 1   
    27    11    18 1   
    28    11    32 1   
    29    11    33 1   
    30    12    13 ar  
    31    12    18 1   
    32    12    21 ar  
    33    13    14 1   
    34    15    16 1   
    35    15    18 1   
    36    15    34 1   
    37    15    35 1   
    38    16    23 1   
    39    16    36 1   
    40    16    37 1   
    41    19    38 1   
@<TRIPOS>SUBSTRUCTURE
     1 QK6         1 TEMP              0 ****  ****    0 ROOT
