@<TRIPOS>MOLECULE
QK7
   59    63     1     0     0
SMALL
abcg2


@<TRIPOS>ATOM
      1 C7           6.5000     0.8350     1.3830 cx         1 QK7      -0.115400
      2 C6           1.0870    -1.2320     1.1630 cx         1 QK7      -0.093400
      3 C1          -7.0820    -1.0910     1.2310 ca         1 QK7      -0.296000
      4 C5          -0.7730     2.0840     0.4620 c2         1 QK7       0.712100
      5 C4          -4.5860    -0.7090     0.3360 ca         1 QK7       0.391900
      6 C3          -5.9880    -1.7360     1.7880 ca         1 QK7       0.152900
      7 C2          -6.7960    -0.2390     0.1760 ca         1 QK7       0.152900
      8 C8          -3.0290     0.3370    -1.2490 c5         1 QK7       0.239800
      9 C9          -2.1600    -1.1250     0.4650 c5         1 QK7       0.251800
     10 C10         -0.7970     1.2100    -2.1630 c6         1 QK7       0.077600
     11 C11          0.2790    -1.0430    -0.0850 cx         1 QK7      -0.128700
     12 C12         -1.5360     0.0950    -1.4600 c5         1 QK7      -0.116700
     13 C13          1.6220    -0.3950     0.0450 cx         1 QK7      -0.104700
     14 C14          7.5320     0.2330     0.4780 cx         1 QK7      -0.120700
     15 C15          6.2160    -0.4560     0.6730 cx         1 QK7      -0.124700
     16 C16         -1.0140    -0.2490    -0.0570 c5         1 QK7       0.195200
     17 C17          8.7940    -0.3600     1.0450 c3         1 QK7      -0.061100
     18 C18          2.8380    -2.2790    -1.1570 c3         1 QK7      -0.117600
     19 C19          2.8800     0.0600    -2.0360 c3         1 QK7      -0.117600
     20 C20          5.2230    -0.4790    -0.4500 c3         1 QK7       0.195600
     21 C21          2.8360    -0.8000    -0.7730 c3         1 QK7       0.223000
     22 N22         -5.5720    -0.0370    -0.2790 nb         1 QK7      -0.248000
     23 N23         -4.7510    -1.5630     1.3580 nb         1 QK7      -0.248000
     24 N24         -0.9070     0.8810     0.8320 n2         1 QK7      -0.697900
     25 N25         -3.3380    -0.5090    -0.1110 nh         1 QK7      -0.777300
     26 O27          3.9260    -0.5130     0.1030 os         1 QK7      -0.457000
     27 S28         -0.7330     2.7360    -1.1900 ss         1 QK7      -0.404200
     28 H1           6.6790     0.8000     2.4510 hc         1 QK7       0.073700
     29 H2           5.9750     1.7230     1.0500 hc         1 QK7       0.073700
     30 H3           0.7620    -0.7140     2.0570 hc         1 QK7       0.081700
     31 H4           1.5150    -2.2090     1.3480 hc         1 QK7       0.081700
     32 H6          -6.1150    -2.4240     2.6180 h4         1 QK7       0.017600
     33 H7          -7.5900     0.3060    -0.3240 h4         1 QK7       0.017600
     34 H8          -3.2480     1.3870    -1.0340 h1         1 QK7       0.063200
     35 H9          -3.6090     0.0570    -2.1310 h1         1 QK7       0.063200
     36 H10         -2.0470    -2.1620     0.1290 h1         1 QK7       0.070200
     37 H11         -2.1930    -1.1270     1.5530 h1         1 QK7       0.070200
     38 H12          0.2200     0.9010    -2.3970 h1         1 QK7       0.079700
     39 H13         -1.2850     1.4740    -3.1010 h1         1 QK7       0.079700
     40 H14          0.2220    -1.9110    -0.7360 hc         1 QK7       0.077700
     41 H15         -1.4160    -0.7960    -2.0840 hc         1 QK7       0.073700
     42 H16          1.6020     0.6750     0.2350 hc         1 QK7       0.094700
     43 H17          7.6600     0.7290    -0.4800 hc         1 QK7       0.072700
     44 H18          6.2340    -1.3550     1.2840 hc         1 QK7       0.084700
     45 H19          8.6110    -0.8290     2.0140 hc         1 QK7       0.035700
     46 H20          9.2080    -1.1230     0.3830 hc         1 QK7       0.035700
     47 H21          9.5600     0.4040     1.1890 hc         1 QK7       0.035700
     48 H22          3.7710    -2.5560    -1.6500 hc         1 QK7       0.040867
     49 H23          2.7250    -2.9280    -0.2880 hc         1 QK7       0.040867
     50 H24          2.0360    -2.5020    -1.8590 hc         1 QK7       0.040867
     51 H25          2.0080    -0.1490    -2.6560 hc         1 QK7       0.040867
     52 H26          2.8710     1.1240    -1.7910 hc         1 QK7       0.040867
     53 H27          3.7590    -0.1380    -2.6520 hc         1 QK7       0.040867
     54 H28          5.3640     0.4100    -1.0800 h1         1 QK7       0.021200
     55 H29          5.4130    -1.3500    -1.0900 h1         1 QK7       0.021200
     56 H30         -0.8420     4.0220     1.1190 hn         1 QK7       0.475000
     57 H31         -0.8470     2.8390     2.3250 hn         1 QK7       0.475000
     58 N26         -0.5980     3.0800     1.3790 nv         1 QK7      -1.014200
     59 H5          -8.0880    -1.2440     1.5930 ha         1 QK7       0.133000
@<TRIPOS>BOND
     1     1    14 1   
     2     1    15 1   
     3     1    28 1   
     4     1    29 1   
     5     2    11 1   
     6     2    13 1   
     7     2    30 1   
     8     2    31 1   
     9     3     6 ar  
    10     3     7 ar  
    11     3    59 1   
    12     4    24 2   
    13     4    27 1   
    14     4    58 1   
    15     5    22 ar  
    16     5    23 ar  
    17     5    25 1   
    18     6    23 ar  
    19     6    32 1   
    20     7    22 ar  
    21     7    33 1   
    22     8    12 1   
    23     8    25 1   
    24     8    34 1   
    25     8    35 1   
    26     9    16 1   
    27     9    25 1   
    28     9    36 1   
    29     9    37 1   
    30    10    12 1   
    31    10    27 1   
    32    10    38 1   
    33    10    39 1   
    34    11    13 1   
    35    11    16 1   
    36    11    40 1   
    37    12    16 1   
    38    12    41 1   
    39    13    21 1   
    40    13    42 1   
    41    14    15 1   
    42    14    17 1   
    43    14    43 1   
    44    15    20 1   
    45    15    44 1   
    46    16    24 1   
    47    17    45 1   
    48    17    46 1   
    49    17    47 1   
    50    18    21 1   
    51    18    48 1   
    52    18    49 1   
    53    18    50 1   
    54    19    21 1   
    55    19    51 1   
    56    19    52 1   
    57    19    53 1   
    58    20    26 1   
    59    20    54 1   
    60    20    55 1   
    61    21    26 1   
    62    56    58 1   
    63    57    58 1   
@<TRIPOS>SUBSTRUCTURE
     1 QK7         1 TEMP              0 ****  ****    0 ROOT
