@<TRIPOS>MOLECULE
QK7
   59    63     1     0     0
SMALL
No Charge or Current Charge


@<TRIPOS>ATOM
      1 C7           6.5290     1.2560     0.7130 cx         1 QK7      -0.115400
      2 C6           0.9590    -1.5190     1.1130 cx         1 QK7      -0.093400
      3 C1          -7.3040    -1.2390     0.8800 ca         1 QK7      -0.296000
      4 C5          -0.5100     2.0570     0.8150 c2         1 QK7       0.712100
      5 C4          -4.7540    -0.6770     0.2480 ca         1 QK7       0.391900
      6 C3          -6.2440    -2.0100     1.3810 ca         1 QK7       0.152900
      7 C2          -6.9840    -0.1640     0.0370 ca         1 QK7       0.152900
      8 C8          -2.9980     0.7320    -0.9780 c5         1 QK7       0.239800
      9 C9          -2.2300    -1.0960     0.4980 c5         1 QK7       0.251800
     10 C10         -0.6530     1.4260    -1.9210 c6         1 QK7       0.077600
     11 C11          0.1920    -1.1410    -0.1450 cx         1 QK7      -0.128700
     12 C12         -1.5230     0.3450    -1.2860 c5         1 QK7      -0.116700
     13 C13          1.5960    -0.6020     0.0820 cx         1 QK7      -0.104700
     14 C14          7.6040     0.2990     0.2500 cx         1 QK7      -0.120700
     15 C15          6.2360    -0.2250     0.6260 cx         1 QK7      -0.124700
     16 C16         -1.0180    -0.1710     0.0960 c5         1 QK7       0.195200
     17 C17          8.8170     0.0060     1.1210 c3         1 QK7      -0.061100
     18 C18          2.9540    -2.5450    -1.0030 c3         1 QK7      -0.117600
     19 C19          2.8460    -0.2320    -2.0900 c3         1 QK7      -0.117600
     20 C20          5.2920    -0.7790    -0.4330 c3         1 QK7       0.195600
     21 C21          2.8280    -1.0140    -0.7520 c3         1 QK7       0.223000
     22 N22         -5.7070     0.1200    -0.2820 nb         1 QK7      -0.248000
     23 N23         -4.9650    -1.7310     1.0660 nb         1 QK7      -0.248000
     24 N24         -0.8390     0.8780     1.1800 n2         1 QK7      -0.697900
     25 N25         -3.4130    -0.3830    -0.0850 nh         1 QK7      -0.777300
     26 O27          3.9500    -0.5840     0.0610 os         1 QK7      -0.457000
     27 S28         -0.4310     2.8310    -0.7820 ss         1 QK7      -0.404200
     28 H1           6.6230     1.6940     1.7040 hc         1 QK7       0.073700
     29 H2           6.0780     1.9100    -0.0310 hc         1 QK7       0.073700
     30 H3           0.6750    -1.0790     2.0650 hc         1 QK7       0.081700
     31 H4           1.2990    -2.5470     1.1940 hc         1 QK7       0.081700
     32 H6          -6.4180    -2.8590     2.0400 h4         1 QK7       0.017600
     33 H7          -7.7550     0.4760    -0.3880 h4         1 QK7       0.017600
     34 H8          -3.0780     1.7000    -0.4640 h1         1 QK7       0.063200
     35 H9          -3.5940     0.7810    -1.9010 h1         1 QK7       0.063200
     36 H10         -2.1380    -2.1000     0.0590 h1         1 QK7       0.070200
     37 H11         -2.2980    -1.2110     1.5890 h1         1 QK7       0.070200
     38 H12          0.3400     1.0200    -2.1470 h1         1 QK7       0.079700
     39 H13         -1.0930     1.7910    -2.8600 h1         1 QK7       0.079700
     40 H14          0.0720    -1.9190    -0.8950 hc         1 QK7       0.077700
     41 H15         -1.5250    -0.4700    -2.0200 hc         1 QK7       0.073700
     42 H16          1.6740     0.4440     0.3650 hc         1 QK7       0.094700
     43 H17          7.8500     0.3210    -0.8100 hc         1 QK7       0.072700
     44 H18          6.1560    -0.7640     1.5670 hc         1 QK7       0.084700
     45 H19          8.5560    -0.0070     2.1860 hc         1 QK7       0.035700
     46 H20          9.2490    -0.9700     0.8690 hc         1 QK7       0.035700
     47 H21          9.5930     0.7660     0.9740 hc         1 QK7       0.035700
     48 H22          3.7670    -2.7660    -1.7040 hc         1 QK7       0.040867
     49 H23          3.1580    -3.0850    -0.0710 hc         1 QK7       0.040867
     50 H24          2.0380    -2.9510    -1.4450 hc         1 QK7       0.040867
     51 H25          1.9460    -0.4610    -2.6720 hc         1 QK7       0.040867
     52 H26          2.8760     0.8500    -1.9130 hc         1 QK7       0.040867
     53 H27          3.7050    -0.5070    -2.7120 hc         1 QK7       0.040867
     54 H28          5.4550    -0.2440    -1.3780 h1         1 QK7       0.021200
     55 H29          5.5170    -1.8420    -0.5860 h1         1 QK7       0.021200
     56 H30         -0.5450     3.9370     1.3840 hn         1 QK7       0.475000
     57 H31         -0.7590     2.7790     2.6200 hn         1 QK7       0.475000
     58 N26         -0.3280     3.0160     1.7370 nv         1 QK7      -1.014200
     59 H5          -8.3360    -1.4670     1.1360 ha         1 QK7       0.133000
@<TRIPOS>BOND
     1     1    14 1   
     2     1    15 1   
     3     1    28 1   
     4     1    29 1   
     5     2    11 1   
     6     2    13 1   
     7     2    30 1   
     8     2    31 1   
     9     3     6 ar  
    10     3     7 ar  
    11     3    59 1   
    12     4    24 2   
    13     4    27 1   
    14     4    58 1   
    15     5    22 ar  
    16     5    23 ar  
    17     5    25 1   
    18     6    23 ar  
    19     6    32 1   
    20     7    22 ar  
    21     7    33 1   
    22     8    12 1   
    23     8    25 1   
    24     8    34 1   
    25     8    35 1   
    26     9    16 1   
    27     9    25 1   
    28     9    36 1   
    29     9    37 1   
    30    10    12 1   
    31    10    27 1   
    32    10    38 1   
    33    10    39 1   
    34    11    13 1   
    35    11    16 1   
    36    11    40 1   
    37    12    16 1   
    38    12    41 1   
    39    13    21 1   
    40    13    42 1   
    41    14    15 1   
    42    14    17 1   
    43    14    43 1   
    44    15    20 1   
    45    15    44 1   
    46    16    24 1   
    47    17    45 1   
    48    17    46 1   
    49    17    47 1   
    50    18    21 1   
    51    18    48 1   
    52    18    49 1   
    53    18    50 1   
    54    19    21 1   
    55    19    51 1   
    56    19    52 1   
    57    19    53 1   
    58    20    26 1   
    59    20    54 1   
    60    20    55 1   
    61    21    26 1   
    62    56    58 1   
    63    57    58 1   
@<TRIPOS>SUBSTRUCTURE
     1 QK7         1 TEMP              0 ****  ****    0 ROOT
