@<TRIPOS>MOLECULE
QK8
   61    63     1     0     0
SMALL
No Charge or Current Charge


@<TRIPOS>ATOM
      1 C1         -21.0490    21.9230     5.7470 c6         1 QK8       0.175800
      2 N1         -24.4790    24.0060     7.7050 ns         1 QK8      -0.500900
      3 O1         -23.2230    23.8170     9.6100 o          1 QK8      -0.608100
      4 C2         -21.9000    22.9980     6.4670 c6         1 QK8      -0.069900
      5 N2         -20.9400    16.7410     3.1070 n          1 QK8      -0.404800
      6 O2         -21.0250    14.4300     3.2480 o          1 QK8      -0.549000
      7 C3         -22.5750    22.4220     7.7470 c6         1 QK8      -0.152700
      8 N3         -21.8780    20.7440     5.3650 n3         1 QK8      -0.745600
      9 O3         -22.7660    15.5680     2.2850 os         1 QK8      -0.461100
     10 C4         -23.4190    21.1920     7.2970 c6         1 QK8      -0.069900
     11 C5         -22.5510    20.1450     6.5560 c6         1 QK8       0.175800
     12 C6         -23.4460    23.4780     8.4550 c          1 QK8       0.606100
     13 C7         -25.4390    24.9830     8.1600 cy         1 QK8       0.113400
     14 C8         -26.3340    24.5960     9.3990 cy         1 QK8      -0.095900
     15 C9         -27.2800    23.8790     8.3830 cy         1 QK8      -0.092400
     16 C10        -21.1740    19.7720     4.4770 c3         1 QK8       0.199500
     17 C11        -22.1770    18.8460     3.7450 c3         1 QK8      -0.093400
     18 C12        -21.5500    18.0060     2.6170 c3         1 QK8       0.119000
     19 C13        -19.6450    16.7940     3.8300 c3         1 QK8       0.109000
     20 C15        -20.0190    18.9970     5.1780 c3         1 QK8      -0.102400
     21 C17        -23.4750    14.3600     1.9490 c3         1 QK8       0.182600
     22 C18        -22.8440    13.7480     0.6810 c3         1 QK8      -0.124100
     23 C19        -26.8040    24.9760     7.3770 cy         1 QK8      -0.095900
     24 C20        -24.7520    26.3590     8.2280 c3         1 QK8      -0.091100
     25 C14        -19.1010    18.1870     4.2270 c3         1 QK8      -0.090400
     26 H1         -20.2280    21.6240     6.4140 h1         1 QK8       0.034200
     27 H2         -20.5950    22.3760     4.8540 h1         1 QK8       0.034200
     28 H3         -24.5560    23.6450     6.7630 hn         1 QK8       0.313500
     29 H4         -21.2590    23.8490     6.7350 hc         1 QK8       0.049950
     30 H5         -22.6520    23.3840     5.7670 hc         1 QK8       0.049950
     31 H6         -21.8030    22.0990     8.4580 hc         1 QK8       0.078700
     32 H8         -24.2400    21.5020     6.6370 hc         1 QK8       0.049950
     33 H9         -23.8860    20.7220     8.1730 hc         1 QK8       0.049950
     34 H10        -23.2020    19.3100     6.2640 h1         1 QK8       0.034200
     35 H11        -21.8050    19.7440     7.2580 h1         1 QK8       0.034200
     36 H12        -25.8730    23.9500    10.1530 hc         1 QK8       0.057950
     37 H13        -26.7920    25.4490     9.9150 hc         1 QK8       0.057950
     38 H14        -28.3460    23.8850     8.6320 hc         1 QK8       0.050700
     39 H15        -26.9840    22.8550     8.1230 hc         1 QK8       0.050700
     40 H16        -20.6980    20.3640     3.6820 h1         1 QK8       0.045700
     41 H17        -22.9560    19.4770     3.3010 hc         1 QK8       0.057200
     42 H18        -22.6810    18.1760     4.4500 hc         1 QK8       0.057200
     43 H19        -20.7930    18.5990     2.0880 h1         1 QK8       0.053200
     44 H20        -22.3270    17.7960     1.8720 h1         1 QK8       0.053200
     45 H21        -19.7430    16.1970     4.7460 h1         1 QK8       0.058700
     46 H22        -18.8910    16.2980     3.2050 h1         1 QK8       0.058700
     47 H23        -20.4270    18.3270     5.9440 hc         1 QK8       0.047200
     48 H24        -19.3800    19.7130     5.7050 hc         1 QK8       0.047200
     49 H25        -24.5260    14.5930     1.7360 h1         1 QK8       0.058200
     50 H26        -23.4560    13.6370     2.7760 h1         1 QK8       0.058200
     51 H27        -23.4210    12.8720     0.3600 hc         1 QK8       0.047700
     52 H28        -22.8440    14.4760    -0.1390 hc         1 QK8       0.047700
     53 H29        -21.8130    13.4250     0.8630 hc         1 QK8       0.047700
     54 H30        -27.3710    25.9130     7.4340 hc         1 QK8       0.057950
     55 H31        -26.7550    24.6710     6.3270 hc         1 QK8       0.057950
     56 H32        -23.9390    26.3670     8.9640 hc         1 QK8       0.045700
     57 H33        -24.3290    26.6370     7.2560 hc         1 QK8       0.045700
     58 H34        -25.4610    27.1430     8.5170 hc         1 QK8       0.045700
     59 H35        -18.1430    18.0270     4.7370 hc         1 QK8       0.044200
     60 H36        -18.8670    18.7750     3.3320 hc         1 QK8       0.044200
     61 C16        -21.5340    15.4790     2.8810 c          1 QK8       0.640100
@<TRIPOS>BOND
     1     1     4 1   
     2     1     8 1   
     3     1    26 1   
     4     1    27 1   
     5     2    12 1   
     6     2    13 1   
     7     2    28 1   
     8     3    12 2   
     9     4     7 1   
    10     4    29 1   
    11     4    30 1   
    12     5    18 1   
    13     5    19 1   
    14     5    61 1   
    15     6    61 2   
    16     7    10 1   
    17     7    12 1   
    18     7    31 1   
    19     8    11 1   
    20     8    16 1   
    21     9    21 1   
    22     9    61 1   
    23    10    11 1   
    24    10    32 1   
    25    10    33 1   
    26    11    34 1   
    27    11    35 1   
    28    13    14 1   
    29    13    23 1   
    30    13    24 1   
    31    14    15 1   
    32    14    36 1   
    33    14    37 1   
    34    15    23 1   
    35    15    38 1   
    36    15    39 1   
    37    16    17 1   
    38    16    20 1   
    39    16    40 1   
    40    17    18 1   
    41    17    41 1   
    42    17    42 1   
    43    18    43 1   
    44    18    44 1   
    45    19    25 1   
    46    19    45 1   
    47    19    46 1   
    48    20    25 1   
    49    20    47 1   
    50    20    48 1   
    51    21    22 1   
    52    21    49 1   
    53    21    50 1   
    54    22    51 1   
    55    22    52 1   
    56    22    53 1   
    57    23    54 1   
    58    23    55 1   
    59    24    56 1   
    60    24    57 1   
    61    24    58 1   
    62    25    59 1   
    63    25    60 1   
@<TRIPOS>SUBSTRUCTURE
     1 QK8         1 TEMP              0 ****  ****    0 ROOT
