@<TRIPOS>MOLECULE
QK8
   61    63     1     0     0
SMALL
bcc


@<TRIPOS>ATOM
      1 C1         -20.9790    21.8100     5.8240 c6         1 QK8       0.175800
      2 N1         -24.4650    23.7410     7.6310 ns         1 QK8      -0.567900
      3 O1         -23.6590    23.0350     9.6190 o          1 QK8      -0.608100
      4 C2         -21.8970    22.7990     6.5260 c6         1 QK8      -0.069900
      5 N2         -20.7590    17.0690     2.9230 n          1 QK8      -0.471800
      6 O2         -21.0180    14.9480     3.7100 o          1 QK8      -0.598000
      7 C3         -22.6820    22.0990     7.6360 c6         1 QK8      -0.152700
      8 N3         -21.7440    20.7050     5.2790 n3         1 QK8      -0.745600
      9 O3         -22.7710    16.1060     2.9080 os         1 QK8      -0.437900
     10 C4         -23.4030    20.8760     7.0620 c6         1 QK8      -0.069900
     11 C5         -22.4160    19.9740     6.3360 c6         1 QK8       0.175800
     12 C6         -23.6370    23.0060     8.3950 c          1 QK8       0.673100
     13 C7         -25.4460    24.6950     8.1270 cy         1 QK8       0.113400
     14 C8         -26.5940    23.9950     8.8990 cy         1 QK8      -0.095900
     15 C9         -27.3870    23.8950     7.5840 cy         1 QK8      -0.092400
     16 C10        -21.0070    19.8900     4.3190 c3         1 QK8       0.199500
     17 C11        -21.9930    19.1780     3.3930 c3         1 QK8      -0.093400
     18 C12        -21.3590    18.2630     2.3510 c3         1 QK8       0.119000
     19 C13        -19.3500    17.1130     3.2780 c3         1 QK8       0.109000
     20 C15        -19.9430    18.9720     4.9440 c3         1 QK8      -0.102400
     21 C17        -23.6310    14.9790     3.0920 c3         1 QK8       0.159400
     22 C18        -23.5310    13.9820     1.9580 c3         1 QK8      -0.124100
     23 C19        -26.4650    24.9780     7.0000 cy         1 QK8      -0.095900
     24 C20        -24.7870    25.9020     8.7680 c3         1 QK8      -0.091100
     25 C14        -18.9420    18.4350     3.9190 c3         1 QK8      -0.090400
     26 H1         -20.2020    21.4790     6.5350 h1         1 QK8       0.034200
     27 H2         -20.4590    22.3150     5.0070 h1         1 QK8       0.034200
     28 H3         -24.3600    23.6820     6.6300 hn         1 QK8       0.313500
     29 H4         -21.3060    23.6210     6.9370 hc         1 QK8       0.049950
     30 H5         -22.5680    23.2290     5.7760 hc         1 QK8       0.049950
     31 H6         -21.9630    21.7410     8.3800 hc         1 QK8       0.078700
     32 H8         -24.1840    21.1890     6.3630 hc         1 QK8       0.049950
     33 H9         -23.8900    20.3130     7.8620 hc         1 QK8       0.049950
     34 H10        -22.9560    19.1250     5.9160 h1         1 QK8       0.034200
     35 H11        -21.7050    19.5590     7.0720 h1         1 QK8       0.034200
     36 H12        -26.3550    23.0730     9.4270 hc         1 QK8       0.057950
     37 H13        -27.0620    24.6860     9.6010 hc         1 QK8       0.057950
     38 H14        -28.4530    24.1160     7.6230 hc         1 QK8       0.050700
     39 H15        -27.2530    22.9300     7.0950 hc         1 QK8       0.050700
     40 H16        -20.4600    20.6070     3.6930 h1         1 QK8       0.045700
     41 H17        -22.5750    19.9420     2.8700 hc         1 QK8       0.057200
     42 H18        -22.7110    18.5890     3.9680 hc         1 QK8       0.057200
     43 H19        -20.5810    18.7920     1.7950 h1         1 QK8       0.053200
     44 H20        -22.1070    17.9830     1.6110 h1         1 QK8       0.053200
     45 H21        -19.1560    16.3050     3.9790 h1         1 QK8       0.058700
     46 H22        -18.7320    16.9260     2.3940 h1         1 QK8       0.058700
     47 H23        -20.4080    18.1440     5.4890 hc         1 QK8       0.047200
     48 H24        -19.3930    19.5500     5.6910 hc         1 QK8       0.047200
     49 H25        -24.6330    15.4050     3.1320 h1         1 QK8       0.058200
     50 H26        -23.4350    14.5020     4.0530 h1         1 QK8       0.058200
     51 H27        -24.2760    13.1990     2.1020 hc         1 QK8       0.047700
     52 H28        -23.7290    14.4560     0.9960 hc         1 QK8       0.047700
     53 H29        -22.5520    13.5070     1.9170 hc         1 QK8       0.047700
     54 H30        -26.8900    25.9770     7.1090 hc         1 QK8       0.057950
     55 H31        -26.1180    24.8660     5.9700 hc         1 QK8       0.057950
     56 H32        -24.2120    25.6230     9.6500 hc         1 QK8       0.045700
     57 H33        -24.1160    26.3940     8.0620 hc         1 QK8       0.045700
     58 H34        -25.5440    26.6250     9.0730 hc         1 QK8       0.045700
     59 H35        -17.9720    18.2680     4.3920 hc         1 QK8       0.044200
     60 H36        -18.7650    19.1960     3.1530 hc         1 QK8       0.044200
     61 C16        -21.4760    15.9630     3.2180 c          1 QK8       0.756100
@<TRIPOS>BOND
     1     1     4 1   
     2     1     8 1   
     3     1    26 1   
     4     1    27 1   
     5     2    12 1   
     6     2    13 1   
     7     2    28 1   
     8     3    12 2   
     9     4     7 1   
    10     4    29 1   
    11     4    30 1   
    12     5    18 1   
    13     5    19 1   
    14     5    61 1   
    15     6    61 2   
    16     7    10 1   
    17     7    12 1   
    18     7    31 1   
    19     8    11 1   
    20     8    16 1   
    21     9    21 1   
    22     9    61 1   
    23    10    11 1   
    24    10    32 1   
    25    10    33 1   
    26    11    34 1   
    27    11    35 1   
    28    13    14 1   
    29    13    23 1   
    30    13    24 1   
    31    14    15 1   
    32    14    36 1   
    33    14    37 1   
    34    15    23 1   
    35    15    38 1   
    36    15    39 1   
    37    16    17 1   
    38    16    20 1   
    39    16    40 1   
    40    17    18 1   
    41    17    41 1   
    42    17    42 1   
    43    18    43 1   
    44    18    44 1   
    45    19    25 1   
    46    19    45 1   
    47    19    46 1   
    48    20    25 1   
    49    20    47 1   
    50    20    48 1   
    51    21    22 1   
    52    21    49 1   
    53    21    50 1   
    54    22    51 1   
    55    22    52 1   
    56    22    53 1   
    57    23    54 1   
    58    23    55 1   
    59    24    56 1   
    60    24    57 1   
    61    24    58 1   
    62    25    59 1   
    63    25    60 1   
@<TRIPOS>SUBSTRUCTURE
     1 QK8         1 TEMP              0 ****  ****    0 ROOT
