@<TRIPOS>MOLECULE
QK9
   29    32     1     0     0
SMALL
No Charge or Current Charge


@<TRIPOS>ATOM
      1 C12        186.0300   187.6350   138.7650 c3         1 QK9       0.161000
      2 N3         184.4540   190.4020   142.4730 nc         1 QK9      -0.511800
      3 C3         182.4550   187.6970   138.2270 cc         1 QK9       0.426400
      4 C2         184.5540   187.9700   138.7050 cd         1 QK9       0.183300
      5 C1         183.9220   189.0790   139.2260 cc         1 QK9      -0.164300
      6 C4         181.5350   189.7660   139.1890 ca         1 QK9       0.021800
      7 C5         181.4220   190.4940   140.4130 ca         1 QK9      -0.124500
      8 C6         180.2560   191.2580   140.6520 ca         1 QK9      -0.029000
      9 C7         179.2480   191.3590   139.6830 ca         1 QK9      -0.028900
     10 N2         182.2050   190.5940   142.7710 nd         1 QK9      -0.683000
     11 C10        182.4320   190.4410   141.4800 cc         1 QK9       0.459000
     12 C9         180.5090   189.8930   138.2230 ca         1 QK9      -0.123000
     13 C8         179.3780   190.6880   138.4630 ca         1 QK9      -0.056000
     14 N1         182.5970   188.8850   138.9120 na         1 QK9      -0.070300
     15 C11        183.4650   190.5430   143.3480 cd         1 QK9       0.521900
     16 N          183.6440   187.1220   138.0880 nd         1 QK9      -0.645000
     17 C          184.4790   190.2300   140.0090 c3         1 QK9       0.156900
     18 F          186.7880   188.6040   138.2000 f          1 QK9      -0.119500
     19 F1         186.4600   187.4930   140.0410 f          1 QK9      -0.119500
     20 N4         183.7860   190.3500   141.2910 na         1 QK9      -0.046700
     21 Br         177.6970   192.4250   140.0270 br         1 QK9      -0.064100
     22 H7         186.2140   186.6970   138.2320 h2         1 QK9       0.085700
     23 H3         180.1380   191.7960   141.5900 ha         1 QK9       0.160000
     24 H5         180.5780   189.3740   137.2700 ha         1 QK9       0.134000
     25 H4         178.5980   190.7710   137.7090 ha         1 QK9       0.141000
     26 H6         183.6100   190.6280   144.4190 h5         1 QK9       0.070100
     27 H          185.5520   190.0890   140.1880 h1         1 QK9       0.097700
     28 H1         184.3470   191.1620   139.4450 h1         1 QK9       0.097700
     29 H2         181.5020   187.3180   137.8780 h5         1 QK9       0.069100
@<TRIPOS>BOND
     1     1     4 1   
     2     1    18 1   
     3     1    19 1   
     4     1    22 1   
     5     2    15 2   
     6     2    20 1   
     7     3    14 1   
     8     3    16 2   
     9     3    29 1   
    10     4     5 2   
    11     4    16 1   
    12     5    14 1   
    13     5    17 1   
    14     6     7 ar  
    15     6    12 ar  
    16     6    14 1   
    17     7     8 ar  
    18     7    11 1   
    19     8     9 ar  
    20     8    23 1   
    21     9    13 ar  
    22     9    21 1   
    23    10    11 2   
    24    10    15 1   
    25    11    20 1   
    26    12    13 ar  
    27    12    24 1   
    28    13    25 1   
    29    15    26 1   
    30    17    20 1   
    31    17    27 1   
    32    17    28 1   
@<TRIPOS>SUBSTRUCTURE
     1 QK9         1 TEMP              0 ****  ****    0 ROOT
