@<TRIPOS>MOLECULE
QK9
   29    32     1     0     0
SMALL
abcg2


@<TRIPOS>ATOM
      1 C12        186.0040   187.6420   138.7270 c3         1 QK9       0.161000
      2 N3         184.3990   190.3730   142.4100 nc         1 QK9      -0.511800
      3 C3         182.4890   187.6710   138.3520 cc         1 QK9       0.426400
      4 C2         184.5570   187.9710   138.7410 cd         1 QK9       0.183300
      5 C1         183.9280   189.0750   139.2410 cc         1 QK9      -0.164300
      6 C4         181.5220   189.7630   139.2230 ca         1 QK9       0.021800
      7 C5         181.4150   190.4840   140.4170 ca         1 QK9      -0.124500
      8 C6         180.2960   191.2890   140.6260 ca         1 QK9      -0.029000
      9 C7         179.3130   191.3790   139.6590 ca         1 QK9      -0.028900
     10 N2         182.1960   190.5280   142.7710 nd         1 QK9      -0.683000
     11 C10        182.4190   190.4370   141.4760 cc         1 QK9       0.459000
     12 C9         180.5330   189.8810   138.2540 ca         1 QK9      -0.123000
     13 C8         179.4240   190.6780   138.4660 ca         1 QK9      -0.056000
     14 N1         182.5940   188.8780   138.9770 na         1 QK9      -0.070300
     15 C11        183.4350   190.4820   143.2960 cd         1 QK9       0.521900
     16 N          183.6500   187.1110   138.1940 nd         1 QK9      -0.645000
     17 C          184.3950   190.2820   139.9670 c3         1 QK9       0.156900
     18 F          186.7450   188.7450   138.4200 f          1 QK9      -0.119500
     19 F1         186.4300   187.2390   139.9580 f          1 QK9      -0.119500
     20 N4         183.7370   190.3490   141.2560 na         1 QK9      -0.046700
     21 BR         177.8180   192.4830   139.9550 br         1 QK9      -0.064100
     22 H7         186.2290   186.8520   138.0090 h2         1 QK9       0.085700
     23 H3         180.2190   191.8420   141.5520 ha         1 QK9       0.160000
     24 H5         180.6260   189.3520   137.3140 ha         1 QK9       0.134000
     25 H4         178.6680   190.7550   137.6970 ha         1 QK9       0.141000
     26 H6         183.6340   190.5270   144.3550 h5         1 QK9       0.070100
     27 H          185.4660   190.2440   140.1410 h1         1 QK9       0.097700
     28 H1         184.1780   191.1950   139.4060 h1         1 QK9       0.097700
     29 H2         181.5370   187.2570   138.0570 h5         1 QK9       0.069100
@<TRIPOS>BOND
     1     1     4 1   
     2     1    18 1   
     3     1    19 1   
     4     1    22 1   
     5     2    15 2   
     6     2    20 1   
     7     3    14 1   
     8     3    16 2   
     9     3    29 1   
    10     4     5 2   
    11     4    16 1   
    12     5    14 1   
    13     5    17 1   
    14     6     7 ar  
    15     6    12 ar  
    16     6    14 1   
    17     7     8 ar  
    18     7    11 1   
    19     8     9 ar  
    20     8    23 1   
    21     9    13 ar  
    22     9    21 1   
    23    10    11 2   
    24    10    15 1   
    25    11    20 1   
    26    12    13 ar  
    27    12    24 1   
    28    13    25 1   
    29    15    26 1   
    30    17    20 1   
    31    17    27 1   
    32    17    28 1   
@<TRIPOS>SUBSTRUCTURE
     1 QK9         1 TEMP              0 ****  ****    0 ROOT
