@<TRIPOS>MOLECULE
QKA
   53    57     1     0     0
SMALL
abcg2


@<TRIPOS>ATOM
      1 C7           5.7150    -1.2580     0.8560 cx         1 QKA      -0.133400
      2 C6           0.6900     2.3460    -1.9240 cx         1 QKA      -0.068400
      3 C1          -6.2030     1.3230     0.0910 ca         1 QKA       0.152900
      4 N1          -4.7980    -0.7500     1.1220 nb         1 QKA      -0.246500
      5 C5           2.8730     1.8080    -0.6430 c          1 QKA       0.627100
      6 C4          -0.4690    -1.3240    -1.9460 c2         1 QKA       0.706100
      7 C3          -4.2310     0.2780     0.4710 ca         1 QKA       0.392900
      8 C2          -6.1130    -0.7120     1.2500 ca         1 QKA       0.152900
      9 O            2.9780     2.9210    -0.1400 o          1 QKA      -0.612100
     10 N5           3.8620     0.9020    -0.6020 ns         1 QKA      -0.505900
     11 C18          5.1310     1.1370     0.0590 c3         1 QKA       0.136000
     12 C15          5.9940    -0.0880    -0.0470 cx         1 QKA      -0.155700
     13 C14          6.9510    -0.4330     1.0490 cx         1 QKA      -0.099700
     14 C17          8.3060    -1.0010     0.7200 c3         1 QKA      -0.064100
     15 C11          1.6330     1.3430    -1.3190 cx         1 QKA      -0.241700
     16 C12          0.3180     1.6670    -0.6570 cx         1 QKA      -0.095700
     17 C16         -0.7770     0.6250    -0.5760 c5         1 QKA       0.187200
     18 N2          -0.8610    -0.1280    -1.8020 n2         1 QKA      -0.697900
     19 C13         -0.6460    -0.2240     0.6980 c5         1 QKA      -0.117700
     20 C10          0.4580    -1.2550     0.6540 c6         1 QKA       0.077600
     21 S            0.2750    -2.3970    -0.7400 ss         1 QKA      -0.402200
     22 C9          -2.1390     1.2880    -0.3430 c5         1 QKA       0.252800
     23 N3          -2.8970     0.2550     0.3330 nh         1 QKA      -0.777300
     24 C8          -2.0540    -0.7630     0.9340 c5         1 QKA       0.240800
     25 N           -4.8900     1.3230    -0.0510 nb         1 QKA      -0.246500
     26 C           -6.8950     0.3160     0.7460 ca         1 QKA      -0.295000
     27 H1           4.9130    -1.1570     1.5770 hc         1 QKA       0.073700
     28 H2           5.8240    -2.2560     0.4490 hc         1 QKA       0.073700
     29 H3           0.9710     3.3890    -1.8730 hc         1 QKA       0.090700
     30 H4           0.1910     2.0420    -2.8340 hc         1 QKA       0.090700
     31 H6          -6.5680    -1.5440     1.7780 h4         1 QKA       0.017600
     32 H7           3.7140    -0.0030    -1.0170 hn         1 QKA       0.315500
     33 H8           5.6330     1.9960    -0.3940 h1         1 QKA       0.053700
     34 H9           4.9630     1.3860     1.1110 h1         1 QKA       0.053700
     35 H10          6.3200    -0.3280    -1.0560 hc         1 QKA       0.082700
     36 H11          6.9400     0.2340     1.9070 hc         1 QKA       0.079700
     37 H12          9.0240    -0.2090     0.5000 hc         1 QKA       0.038700
     38 H13          8.7020    -1.5860     1.5520 hc         1 QKA       0.038700
     39 H14          8.2600    -1.6570    -0.1510 hc         1 QKA       0.038700
     40 H15          1.6950     0.3860    -1.8260 hc         1 QKA       0.085700
     41 H16          0.3940     2.2760     0.2390 hc         1 QKA       0.100700
     42 H17         -0.4000     0.4590     1.5170 hc         1 QKA       0.077700
     43 H18          1.4320    -0.7680     0.5990 h1         1 QKA       0.079200
     44 H19          0.4530    -1.8760     1.5500 h1         1 QKA       0.079200
     45 H20         -0.0310    -2.7320    -3.3600 hn         1 QKA       0.473000
     46 H21         -0.9100    -1.3980    -3.9040 hn         1 QKA       0.473000
     47 H22         -2.0450     2.1850     0.2810 h1         1 QKA       0.071200
     48 H23         -2.6020     1.5850    -1.2830 h1         1 QKA       0.071200
     49 H24         -2.2140    -1.7390     0.4660 h1         1 QKA       0.067200
     50 H25         -2.2630    -0.8800     2.0000 h1         1 QKA       0.067200
     51 H26         -7.9680     0.3320     0.8590 ha         1 QKA       0.133000
     52 N4          -0.6640    -1.9850    -3.1230 nv         1 QKA      -1.010200
     53 H5          -6.7320     2.1700    -0.3350 h4         1 QKA       0.017600
@<TRIPOS>BOND
     1     1    12 1   
     2     1    13 1   
     3     1    27 1   
     4     1    28 1   
     5     2    15 1   
     6     2    16 1   
     7     2    29 1   
     8     2    30 1   
     9     3    25 ar  
    10     3    26 ar  
    11     3    53 1   
    12     4     7 ar  
    13     4     8 ar  
    14     5     9 2   
    15     5    10 1   
    16     5    15 1   
    17     6    18 2   
    18     6    21 1   
    19     6    52 1   
    20     7    23 1   
    21     7    25 ar  
    22     8    26 ar  
    23     8    31 1   
    24    10    11 1   
    25    10    32 1   
    26    11    12 1   
    27    11    33 1   
    28    11    34 1   
    29    12    13 1   
    30    12    35 1   
    31    13    14 1   
    32    13    36 1   
    33    14    37 1   
    34    14    38 1   
    35    14    39 1   
    36    15    16 1   
    37    15    40 1   
    38    16    17 1   
    39    16    41 1   
    40    17    18 1   
    41    17    19 1   
    42    17    22 1   
    43    19    20 1   
    44    19    24 1   
    45    19    42 1   
    46    20    21 1   
    47    20    43 1   
    48    20    44 1   
    49    22    23 1   
    50    22    47 1   
    51    22    48 1   
    52    23    24 1   
    53    24    49 1   
    54    24    50 1   
    55    26    51 1   
    56    45    52 1   
    57    46    52 1   
@<TRIPOS>SUBSTRUCTURE
     1 QKA         1 TEMP              0 ****  ****    0 ROOT
