@<TRIPOS>MOLECULE
QKA
   53    57     1     0     0
SMALL
No Charge or Current Charge


@<TRIPOS>ATOM
      1 C7           5.0800    -0.8280     1.4920 cx         1 QKA      -0.133400
      2 C6           0.5120     2.6460    -1.9240 cx         1 QKA      -0.068400
      3 C1          -6.0270     1.3170     0.8140 ca         1 QKA       0.152900
      4 N1          -4.5710    -0.9840     1.2330 nb         1 QKA      -0.246500
      5 C5           2.9810     2.0310    -1.2780 c          1 QKA       0.627100
      6 C4          -0.2870    -1.1740    -2.3910 c2         1 QKA       0.706100
      7 C3          -4.0520     0.1470     0.7070 ca         1 QKA       0.392900
      8 C2          -5.8770    -0.9590     1.5630 ca         1 QKA       0.152900
      9 O            3.3690     3.1900    -1.2670 o          1 QKA      -0.612100
     10 N5           3.7550     0.9830    -0.8550 ns         1 QKA      -0.505900
     11 C18          5.0930     1.1140    -0.2930 c3         1 QKA       0.136000
     12 C15          5.5830    -0.2420     0.1910 cx         1 QKA      -0.155700
     13 C14          6.5110    -0.3540     1.3790 cx         1 QKA      -0.099700
     14 C17          7.6640    -1.3480     1.3750 c3         1 QKA      -0.064100
     15 C11          1.6120     1.6100    -1.7470 cx         1 QKA      -0.241700
     16 C12          0.4700     1.6970    -0.7440 cx         1 QKA      -0.095700
     17 C16         -0.6300     0.5840    -0.8070 c5         1 QKA       0.187200
     18 N2          -0.8650    -0.0570    -2.1630 n2         1 QKA      -0.697900
     19 C13         -0.3930    -0.3950     0.3810 c5         1 QKA      -0.117700
     20 C10          0.8030    -1.3280     0.2130 c6         1 QKA       0.077600
     21 S            0.7220    -2.2270    -1.3730 ss         1 QKA      -0.402200
     22 C9          -1.9750     1.2530    -0.3310 c5         1 QKA       0.252800
     23 N3          -2.6830     0.1250     0.3620 nh         1 QKA      -0.777300
     24 C8          -1.7920    -1.0540     0.5480 c5         1 QKA       0.240800
     25 N           -4.7230     1.2980     0.4830 nb         1 QKA      -0.246500
     26 C           -6.6570     0.1910     1.3670 ca         1 QKA      -0.295000
     27 H1           4.3960    -0.2320     2.0920 hc         1 QKA       0.073700
     28 H2           4.8960    -1.8990     1.5250 hc         1 QKA       0.073700
     29 H3           0.7460     3.6890    -1.7210 hc         1 QKA       0.090700
     30 H4          -0.1940     2.5020    -2.7380 hc         1 QKA       0.090700
     31 H6          -6.2980    -1.8680     1.9870 h4         1 QKA       0.017600
     32 H7           3.3490     0.0590    -0.9240 hn         1 QKA       0.315500
     33 H8           5.7720     1.5050    -1.0620 h1         1 QKA       0.053700
     34 H9           5.0620     1.8280     0.5420 h1         1 QKA       0.053700
     35 H10          5.7420    -0.9400    -0.6280 hc         1 QKA       0.082700
     36 H11          6.7610     0.5680     1.9020 hc         1 QKA       0.079700
     37 H12          8.5420    -0.9200     0.8760 hc         1 QKA       0.038700
     38 H13          7.9530    -1.6110     2.3990 hc         1 QKA       0.038700
     39 H14          7.3970    -2.2740     0.8520 hc         1 QKA       0.038700
     40 H15          1.6220     0.8010    -2.4710 hc         1 QKA       0.085700
     41 H16          0.6930     2.1360     0.2270 hc         1 QKA       0.100700
     42 H17         -0.1690     0.1630     1.2990 hc         1 QKA       0.077700
     43 H18          1.7330    -0.7430     0.2220 h1         1 QKA       0.079200
     44 H19          0.8570    -2.0570     1.0350 h1         1 QKA       0.079200
     45 H20          0.3500    -2.3840    -3.8070 hn         1 QKA       0.473000
     46 H21         -0.6750    -1.1140    -4.3160 hn         1 QKA       0.473000
     47 H22         -1.7910     2.0780     0.3710 h1         1 QKA       0.071200
     48 H23         -2.5430     1.6530    -1.1830 h1         1 QKA       0.071200
     49 H24         -1.9840    -1.8240    -0.2120 h1         1 QKA       0.067200
     50 H25         -1.8970    -1.5140     1.5410 h1         1 QKA       0.067200
     51 H26         -7.7100     0.2090     1.6340 ha         1 QKA       0.133000
     52 N4          -0.4200    -1.7680    -3.5880 nv         1 QKA      -1.010200
     53 H5          -6.5710     2.2430     0.6350 h4         1 QKA       0.017600
@<TRIPOS>BOND
     1     1    12 1   
     2     1    13 1   
     3     1    27 1   
     4     1    28 1   
     5     2    15 1   
     6     2    16 1   
     7     2    29 1   
     8     2    30 1   
     9     3    25 ar  
    10     3    26 ar  
    11     3    53 1   
    12     4     7 ar  
    13     4     8 ar  
    14     5     9 2   
    15     5    10 1   
    16     5    15 1   
    17     6    18 2   
    18     6    21 1   
    19     6    52 1   
    20     7    23 1   
    21     7    25 ar  
    22     8    26 ar  
    23     8    31 1   
    24    10    11 1   
    25    10    32 1   
    26    11    12 1   
    27    11    33 1   
    28    11    34 1   
    29    12    13 1   
    30    12    35 1   
    31    13    14 1   
    32    13    36 1   
    33    14    37 1   
    34    14    38 1   
    35    14    39 1   
    36    15    16 1   
    37    15    40 1   
    38    16    17 1   
    39    16    41 1   
    40    17    18 1   
    41    17    19 1   
    42    17    22 1   
    43    19    20 1   
    44    19    24 1   
    45    19    42 1   
    46    20    21 1   
    47    20    43 1   
    48    20    44 1   
    49    22    23 1   
    50    22    47 1   
    51    22    48 1   
    52    23    24 1   
    53    24    49 1   
    54    24    50 1   
    55    26    51 1   
    56    45    52 1   
    57    46    52 1   
@<TRIPOS>SUBSTRUCTURE
     1 QKA         1 TEMP              0 ****  ****    0 ROOT
