@<TRIPOS>MOLECULE
QKB
   39    42     1     0     0
SMALL
abcg2


@<TRIPOS>ATOM
      1 N1         -19.9310     6.0780    27.2900 ns         1 QKB      -0.154000
      2 C4         -16.0840     6.0820    25.7420 ca         1 QKB       0.350900
      3 C5         -17.6460     5.2500    27.1950 ca         1 QKB       0.329900
      4 C6         -18.6300     6.1090    26.7580 ca         1 QKB      -0.079000
      5 C7         -20.2740     5.8840    28.5960 c          1 QKB       0.600100
      6 C8         -21.7660     6.0720    28.8700 c6         1 QKB      -0.083400
      7 C10        -21.6310     7.6580    30.8080 c6         1 QKB       0.158600
      8 C13        -23.2410     3.2400    31.7700 ca         1 QKB      -0.060000
      9 C15        -22.4860     3.7550    29.5360 ca         1 QKB      -0.058000
     10 C17        -18.3250     7.0400    25.7250 ca         1 QKB      -0.009000
     11 C14        -22.9640     2.8480    30.4650 ca         1 QKB       0.089000
     12 C12        -23.0240     4.5580    32.1350 ca         1 QKB      -0.134000
     13 C16        -22.2650     5.0840    29.8950 ca         1 QKB      -0.146300
     14 C11        -22.5330     5.4810    31.2090 ca         1 QKB       0.163100
     15 O1         -22.3710     6.7570    31.6530 os         1 QKB      -0.345100
     16 C9         -22.0290     7.5110    29.3550 c6         1 QKB      -0.106400
     17 O          -19.4670     5.6300    29.4790 o          1 QKB      -0.560100
     18 N          -16.3840     5.2390    26.7020 nb         1 QKB      -0.641000
     19 C18        -19.2460     7.9810    25.2100 ca         1 QKB      -0.160000
     20 C          -18.8340     8.8180    24.2120 ca         1 QKB       0.188000
     21 F          -19.7090     9.7230    23.7170 f          1 QKB      -0.178000
     22 C3         -17.0030     7.0080    25.1980 ca         1 QKB      -0.102000
     23 C2         -16.6370     7.9010    24.1640 ca         1 QKB      -0.050000
     24 C1         -17.5410     8.8010    23.6660 ca         1 QKB      -0.146000
     25 H1         -20.6820     6.3210    26.6630 hn         1 QKB       0.153000
     26 H2         -15.0710     6.0570    25.3500 h4         1 QKB       0.024100
     27 H3         -17.8640     4.5330    27.9730 h4         1 QKB       0.047100
     28 H4         -22.3110     5.9130    27.9390 hc         1 QKB       0.066700
     29 H5         -20.5650     7.4590    30.9430 h1         1 QKB       0.070700
     30 H6         -21.8580     8.6530    31.1850 h1         1 QKB       0.070700
     31 H7         -23.6170     2.5260    32.4890 ha         1 QKB       0.133000
     32 H8         -22.2850     3.4390    28.5200 ha         1 QKB       0.125000
     33 H9         -23.2310     4.8890    33.1440 ha         1 QKB       0.135000
     34 H10        -21.4780     8.2320    28.7490 hc         1 QKB       0.063200
     35 H11        -23.0930     7.7290    29.2440 hc         1 QKB       0.063200
     36 H12        -20.2550     8.0700    25.5890 ha         1 QKB       0.127000
     37 H13        -15.6290     7.8640    23.7720 ha         1 QKB       0.126000
     38 H14        -17.2860     9.4940    22.8760 ha         1 QKB       0.139000
     39 CL         -23.2310     1.1800    29.9870 cl         1 QKB      -0.212000
@<TRIPOS>BOND
     1     1     4 1   
     2     1     5 1   
     3     1    25 1   
     4     2    18 ar  
     5     2    22 ar  
     6     2    26 1   
     7     3     4 ar  
     8     3    18 ar  
     9     3    27 1   
    10     4    10 ar  
    11     5     6 1   
    12     5    17 2   
    13     6    13 1   
    14     6    16 1   
    15     6    28 1   
    16     7    15 1   
    17     7    16 1   
    18     7    29 1   
    19     7    30 1   
    20     8    11 ar  
    21     8    12 ar  
    22     8    31 1   
    23     9    11 ar  
    24     9    13 ar  
    25     9    32 1   
    26    10    19 ar  
    27    10    22 ar  
    28    11    39 1   
    29    12    14 ar  
    30    12    33 1   
    31    13    14 ar  
    32    14    15 1   
    33    16    34 1   
    34    16    35 1   
    35    19    20 ar  
    36    19    36 1   
    37    20    21 1   
    38    20    24 ar  
    39    22    23 ar  
    40    23    24 ar  
    41    23    37 1   
    42    24    38 1   
@<TRIPOS>SUBSTRUCTURE
     1 QKB         1 TEMP              0 ****  ****    0 ROOT
