@<TRIPOS>MOLECULE
QKB
   39    42     1     0     0
SMALL
No Charge or Current Charge


@<TRIPOS>ATOM
      1 N1         -19.7470     6.4020    27.5240 ns         1 QKB      -0.154000
      2 C4         -15.9860     6.1550    25.6700 ca         1 QKB       0.350900
      3 C5         -17.4130     5.5300    27.3850 ca         1 QKB       0.329900
      4 C6         -18.4700     6.3340    26.8870 ca         1 QKB      -0.079000
      5 C7         -20.1850     5.9750    28.7720 c          1 QKB       0.600100
      6 C8         -21.6990     6.1930    29.0320 c6         1 QKB      -0.083400
      7 C10        -21.7050     7.6390    31.1040 c6         1 QKB       0.158600
      8 C13        -23.4130     3.1000    31.5770 ca         1 QKB      -0.060000
      9 C15        -22.4790     3.7980    29.4380 ca         1 QKB      -0.058000
     10 C17        -18.2370     7.0740    25.7020 ca         1 QKB      -0.009000
     11 C14        -23.0340     2.8010    30.2590 ca         1 QKB       0.089000
     12 C12        -23.2340     4.4010    32.0790 ca         1 QKB      -0.134000
     13 C16        -22.2940     5.1040    29.9360 ca         1 QKB      -0.146300
     14 C11        -22.6690     5.4000    31.2690 ca         1 QKB       0.163100
     15 O1         -22.5250     6.6690    31.7940 os         1 QKB      -0.345100
     16 C9         -21.9880     7.6100    29.5880 c6         1 QKB      -0.106400
     17 O          -19.4600     5.4330    29.5960 o          1 QKB      -0.560100
     18 N          -16.1980     5.4390    26.7960 nb         1 QKB      -0.641000
     19 C18        -19.2220     7.9040    25.1180 ca         1 QKB      -0.160000
     20 C          -18.9340     8.6170    23.9430 ca         1 QKB       0.188000
     21 F          -19.8800     9.4080    23.3920 f          1 QKB      -0.178000
     22 C3         -16.9680     6.9790    25.0890 ca         1 QKB      -0.102000
     23 C2         -16.6860     7.6980    23.9100 ca         1 QKB      -0.050000
     24 C1         -17.6730     8.5180    23.3380 ca         1 QKB      -0.146000
     25 H1         -20.4650     6.8380    26.9610 hn         1 QKB       0.153000
     26 H2         -14.9990     6.0610    25.2200 h4         1 QKB       0.024100
     27 H3         -17.5310     4.9170    28.2750 h4         1 QKB       0.047100
     28 H4         -22.1850     6.1830    28.0460 hc         1 QKB       0.066700
     29 H5         -20.6470     7.4060    31.2940 h1         1 QKB       0.070700
     30 H6         -21.9100     8.6370    31.5160 h1         1 QKB       0.070700
     31 H7         -23.8470     2.3270    32.2070 ha         1 QKB       0.133000
     32 H8         -22.1960     3.5540    28.4170 ha         1 QKB       0.125000
     33 H9         -23.5300     4.6370    33.0980 ha         1 QKB       0.135000
     34 H10        -21.3860     8.3700    29.0700 hc         1 QKB       0.063200
     35 H11        -23.0410     7.8720    29.4160 hc         1 QKB       0.063200
     36 H12        -20.2090     8.0120    25.5570 ha         1 QKB       0.127000
     37 H13        -15.7080     7.6220    23.4390 ha         1 QKB       0.126000
     38 H14        -17.4620     9.0750    22.4290 ha         1 QKB       0.139000
     39 Cl         -23.2600     1.1740    29.6290 cl         1 QKB      -0.212000
@<TRIPOS>BOND
     1     1     4 1   
     2     1     5 1   
     3     1    25 1   
     4     2    18 ar  
     5     2    22 ar  
     6     2    26 1   
     7     3     4 ar  
     8     3    18 ar  
     9     3    27 1   
    10     4    10 ar  
    11     5     6 1   
    12     5    17 2   
    13     6    13 1   
    14     6    16 1   
    15     6    28 1   
    16     7    15 1   
    17     7    16 1   
    18     7    29 1   
    19     7    30 1   
    20     8    11 ar  
    21     8    12 ar  
    22     8    31 1   
    23     9    11 ar  
    24     9    13 ar  
    25     9    32 1   
    26    10    19 ar  
    27    10    22 ar  
    28    11    39 1   
    29    12    14 ar  
    30    12    33 1   
    31    13    14 ar  
    32    14    15 1   
    33    16    34 1   
    34    16    35 1   
    35    19    20 ar  
    36    19    36 1   
    37    20    21 1   
    38    20    24 ar  
    39    22    23 ar  
    40    23    24 ar  
    41    23    37 1   
    42    24    38 1   
@<TRIPOS>SUBSTRUCTURE
     1 QKB         1 TEMP              0 ****  ****    0 ROOT
