@<TRIPOS>MOLECULE
QKC
   41    44     1     0     0
SMALL
abcg2


@<TRIPOS>ATOM
      1 C16        -48.8430   -29.1890     3.5200 ca         1 QKC      -0.040000
      2 C15        -50.1980   -29.2940     3.7840 ca         1 QKC      -0.178000
      3 C14        -50.6300   -29.4770     5.0920 ca         1 QKC       0.195000
      4 C13        -49.7700   -29.5350     6.1640 ca         1 QKC      -0.183000
      5 C12        -48.4170   -29.4220     5.8720 ca         1 QKC       0.004800
      6 C11        -47.9150   -29.2810     4.5580 cp         1 QKC      -0.063000
      7 C10        -46.4730   -29.1930     4.6900 cp         1 QKC      -0.222000
      8 C19        -46.2120   -29.2190     6.0750 ca         1 QKC       0.189500
      9 C04        -44.2410   -28.6370     0.3680 c6         1 QKC      -0.276700
     10 C05        -44.9910   -29.7770    -0.3400 c6         1 QKC      -0.044400
     11 C06        -45.5540   -30.7610     0.6800 c6         1 QKC      -0.093400
     12 C07        -46.2400   -30.0200     1.8160 c6         1 QKC       0.213800
     13 C09        -45.3160   -29.0700     3.8840 ca         1 QKC       0.435900
     14 C21        -44.0620   -28.8320     5.8020 ca         1 QKC       0.189900
     15 C23        -44.0310   -28.8940     1.8530 c6         1 QKC       0.244800
     16 F17        -51.9490   -29.5880     5.3210 f          1 QKC      -0.179000
     17 N08        -45.2850   -29.1770     2.5330 nh         1 QKC      -0.777300
     18 N18        -47.3720   -29.3950     6.7540 na         1 QKC      -0.324300
     19 N20        -45.0340   -29.0570     6.6660 nb         1 QKC      -0.236000
     20 N22        -44.1390   -28.8370     4.4840 nb         1 QKC      -0.299000
     21 H161       -48.5340   -29.0170     2.5020 ha         1 QKC       0.130000
     22 H151       -50.9200   -29.2260     2.9810 ha         1 QKC       0.134000
     23 H131       -50.1310   -29.6490     7.1780 ha         1 QKC       0.136000
     24 H012       -45.1880   -27.4040    -2.2060 h1         1 QKC       0.102367
     25 H011       -45.2230   -25.6800    -1.7640 h1         1 QKC       0.102367
     26 H013       -43.6780   -26.5710    -1.7390 h1         1 QKC       0.102367
     27 H041       -43.2510   -28.4860    -0.0720 h1         1 QKC       0.094700
     28 H051       -45.8100   -29.3960    -0.9530 hc         1 QKC       0.050700
     29 H052       -44.3100   -30.2840    -1.0230 hc         1 QKC       0.050700
     30 H062       -46.2850   -31.4140     0.2020 hc         1 QKC       0.057200
     31 H061       -44.7660   -31.4060     1.0740 hc         1 QKC       0.057200
     32 H071       -47.0450   -29.4200     1.3930 h1         1 QKC       0.067200
     33 H072       -46.6820   -30.7360     2.5100 h1         1 QKC       0.067200
     34 H211       -43.0790   -28.6370     6.2190 h5         1 QKC       0.048100
     35 H232       -43.5470   -28.0400     2.3170 h1         1 QKC       0.078700
     36 H231       -43.3250   -29.7270     1.9440 h1         1 QKC       0.078700
     37 H181       -47.4480   -29.4200     7.7590 hn         1 QKC       0.369000
     38 S02        -45.0550   -27.0290     0.1460 s6         1 QKC       1.074000
     39 O03        -44.3450   -26.0520     0.9720 o          1 QKC      -0.510500
     40 C01        -44.7500   -26.6420    -1.5660 c3         1 QKC      -0.337100
     41 O24        -46.5010   -27.1580     0.3300 o          1 QKC      -0.510500
@<TRIPOS>BOND
     1     1     2 ar  
     2     1     6 ar  
     3     1    21 1   
     4     2     3 ar  
     5     2    22 1   
     6     3     4 ar  
     7     3    16 1   
     8     4     5 ar  
     9     4    23 1   
    10     5     6 ar  
    11     5    18 1   
    12     6     7 1   
    13     7     8 ar  
    14     7    13 ar  
    15     8    18 1   
    16     8    19 ar  
    17     9    10 1   
    18     9    15 1   
    19     9    27 1   
    20     9    38 1   
    21    10    11 1   
    22    10    28 1   
    23    10    29 1   
    24    11    12 1   
    25    11    30 1   
    26    11    31 1   
    27    12    17 1   
    28    12    32 1   
    29    12    33 1   
    30    13    17 1   
    31    13    20 ar  
    32    14    19 ar  
    33    14    20 ar  
    34    14    34 1   
    35    15    17 1   
    36    15    35 1   
    37    15    36 1   
    38    18    37 1   
    39    24    40 1   
    40    25    40 1   
    41    26    40 1   
    42    38    39 2   
    43    38    40 1   
    44    38    41 2   
@<TRIPOS>SUBSTRUCTURE
     1 QKC         1 TEMP              0 ****  ****    0 ROOT
