@<TRIPOS>MOLECULE
QKC
   41    44     1     0     0
SMALL
No Charge or Current Charge


@<TRIPOS>ATOM
      1 C16        -48.3600   -29.1230     3.2030 ca         1 QKC      -0.040000
      2 C15        -49.7690   -29.0200     3.1710 ca         1 QKC      -0.178000
      3 C14        -50.5160   -28.9820     4.3730 ca         1 QKC       0.195000
      4 C13        -49.8740   -29.0360     5.6260 ca         1 QKC      -0.183000
      5 C12        -48.4810   -29.1440     5.6220 ca         1 QKC       0.004800
      6 C11        -47.7240   -29.2050     4.4590 cp         1 QKC      -0.063000
      7 C10        -46.3190   -29.2890     4.8520 cp         1 QKC      -0.222000
      8 C19        -46.2340   -29.2410     6.2460 ca         1 QKC       0.189500
      9 C04        -44.5520   -28.4880     0.4860 c6         1 QKC      -0.276700
     10 C05        -45.5010   -29.5940    -0.0730 c6         1 QKC      -0.044400
     11 C06        -45.1950   -30.9450     0.6060 c6         1 QKC      -0.093400
     12 C07        -45.4470   -30.8560     2.1350 c6         1 QKC       0.213800
     13 C09        -45.1200   -29.3850     4.1140 ca         1 QKC       0.435900
     14 C21        -43.9670   -29.3320     6.1170 ca         1 QKC       0.189900
     15 C23        -44.0600   -28.7620     1.9340 c6         1 QKC       0.244800
     16 F17        -51.8610   -28.8760     4.3180 f          1 QKC      -0.179000
     17 N08        -45.0640   -29.5320     2.7170 nh         1 QKC      -0.777300
     18 N18        -47.5650   -29.1740     6.6800 na         1 QKC      -0.324300
     19 N20        -45.0650   -29.2600     6.9040 nb         1 QKC      -0.236000
     20 N22        -43.9350   -29.4000     4.7630 nb         1 QKC      -0.299000
     21 H161       -47.7830   -29.1220     2.2830 ha         1 QKC       0.130000
     22 H151       -50.2850   -28.9580     2.2160 ha         1 QKC       0.134000
     23 H131       -50.4410   -28.9870     6.5520 ha         1 QKC       0.136000
     24 H012       -46.3990   -27.3020    -1.6750 h1         1 QKC       0.102367
     25 H011       -46.0050   -25.5480    -1.5170 h1         1 QKC       0.102367
     26 H013       -44.7110   -26.7250    -1.9700 h1         1 QKC       0.102367
     27 H041       -43.6590   -28.4420    -0.1510 h1         1 QKC       0.094700
     28 H051       -46.5540   -29.3380     0.1140 hc         1 QKC       0.050700
     29 H052       -45.3890   -29.6790    -1.1630 hc         1 QKC       0.050700
     30 H062       -45.8130   -31.7440     0.1730 hc         1 QKC       0.057200
     31 H061       -44.1490   -31.2240     0.4160 hc         1 QKC       0.057200
     32 H071       -46.5140   -31.0410     2.3190 h1         1 QKC       0.067200
     33 H072       -44.8960   -31.6680     2.6330 h1         1 QKC       0.067200
     34 H211       -43.0050   -29.3460     6.6260 h5         1 QKC       0.048100
     35 H232       -43.8060   -27.8170     2.4410 h1         1 QKC       0.078700
     36 H231       -43.1250   -29.3410     1.8840 h1         1 QKC       0.078700
     37 H181       -47.8270   -29.1420     7.6580 hn         1 QKC       0.369000
     38 S02        -45.2460   -26.8070     0.3370 s6         1 QKC       1.074000
     39 O03        -44.1830   -25.8510     0.6740 o          1 QKC      -0.510500
     40 C01        -45.6320   -26.5710    -1.3980 c3         1 QKC      -0.337100
     41 O24        -46.5140   -26.7530     1.0750 o          1 QKC      -0.510500
@<TRIPOS>BOND
     1     1     2 ar  
     2     1     6 ar  
     3     1    21 1   
     4     2     3 ar  
     5     2    22 1   
     6     3     4 ar  
     7     3    16 1   
     8     4     5 ar  
     9     4    23 1   
    10     5     6 ar  
    11     5    18 1   
    12     6     7 1   
    13     7     8 ar  
    14     7    13 ar  
    15     8    18 1   
    16     8    19 ar  
    17     9    10 1   
    18     9    15 1   
    19     9    27 1   
    20     9    38 1   
    21    10    11 1   
    22    10    28 1   
    23    10    29 1   
    24    11    12 1   
    25    11    30 1   
    26    11    31 1   
    27    12    17 1   
    28    12    32 1   
    29    12    33 1   
    30    13    17 1   
    31    13    20 ar  
    32    14    19 ar  
    33    14    20 ar  
    34    14    34 1   
    35    15    17 1   
    36    15    35 1   
    37    15    36 1   
    38    18    37 1   
    39    24    40 1   
    40    25    40 1   
    41    26    40 1   
    42    38    39 2   
    43    38    40 1   
    44    38    41 2   
@<TRIPOS>SUBSTRUCTURE
     1 QKC         1 TEMP              0 ****  ****    0 ROOT
