@<TRIPOS>MOLECULE
QKD
   34    35     1     0     0
SMALL
No Charge or Current Charge


@<TRIPOS>ATOM
      1 C10          1.8330     1.3860     0.5990 c3         1 QKD       0.121000
      2 C13          2.7530    -0.4470    -0.8620 c          1 QKD       0.649100
      3 C17          5.7600    -1.1600     1.1520 c3         1 QKD      -0.099100
      4 C01         -2.9660     0.2920    -0.1490 cc         1 QKD      -0.210300
      5 C02         -4.1650     0.7980    -0.5870 cd         1 QKD      -0.120000
      6 C03         -5.2770    -0.0340    -0.2880 cd         1 QKD      -0.134000
      7 C04         -4.9370    -1.1820     0.3810 cc         1 QKD      -0.243000
      8 C06         -1.5990     0.9060    -0.3010 c3         1 QKD       0.166600
      9 C07         -0.6820     0.0540    -1.2080 c3         1 QKD      -0.097400
     10 C08          0.6570     0.7180    -1.5900 c3         1 QKD       0.114000
     11 C11          0.5930     2.2400     0.9450 c3         1 QKD       0.031600
     12 C16          4.8190    -1.3690    -0.0450 c3         1 QKD       0.184600
     13 N09          1.7430     0.5030    -0.6000 n          1 QKD      -0.403800
     14 O14          2.7540    -1.1890    -1.8350 o          1 QKD      -0.550000
     15 O15          3.7290    -0.4440     0.0980 os         1 QKD      -0.460100
     16 S05         -3.2000    -1.2580     0.6620 ss         1 QKD       0.232000
     17 S12         -0.8610     1.1740     1.3730 ss         1 QKD      -0.418000
     18 H1           2.6860     2.0620     0.4570 h1         1 QKD       0.059700
     19 H2           2.0550     0.7620     1.4750 h1         1 QKD       0.059700
     20 H3           6.6120    -1.8470     1.0890 hc         1 QKD       0.046367
     21 H4           6.1450    -0.1340     1.1660 hc         1 QKD       0.046367
     22 H5           5.2330    -1.3510     2.0950 hc         1 QKD       0.046367
     23 H6          -4.2560     1.7440    -1.1130 ha         1 QKD       0.132000
     24 H7          -6.2980     0.2150    -0.5640 ha         1 QKD       0.134000
     25 H8          -5.5710    -1.9870     0.7300 h4         1 QKD       0.150000
     26 H9          -1.7260     1.8910    -0.7690 h1         1 QKD       0.067700
     27 H10         -0.4920    -0.9230    -0.7490 hc         1 QKD       0.069200
     28 H11         -1.2300    -0.1420    -2.1370 hc         1 QKD       0.069200
     29 H12          0.9720     0.3070    -2.5580 h1         1 QKD       0.057200
     30 H13          0.5100     1.7920    -1.7600 h1         1 QKD       0.057200
     31 H14          0.8340     2.8550     1.8210 h1         1 QKD       0.071700
     32 H15          0.3410     2.9210     0.1230 h1         1 QKD       0.071700
     33 H16          5.3680    -1.1870    -0.9790 h1         1 QKD       0.049200
     34 H17          4.4560    -2.4050    -0.0500 h1         1 QKD       0.049200
@<TRIPOS>BOND
     1     1    11 1   
     2     1    13 1   
     3     1    18 1   
     4     1    19 1   
     5     2    13 1   
     6     2    14 2   
     7     2    15 1   
     8     3    12 1   
     9     3    20 1   
    10     3    21 1   
    11     3    22 1   
    12     4     5 2   
    13     4     8 1   
    14     4    16 1   
    15     5     6 1   
    16     5    23 1   
    17     6     7 2   
    18     6    24 1   
    19     7    16 1   
    20     7    25 1   
    21     8     9 1   
    22     8    17 1   
    23     8    26 1   
    24     9    10 1   
    25     9    27 1   
    26     9    28 1   
    27    10    13 1   
    28    10    29 1   
    29    10    30 1   
    30    11    17 1   
    31    11    31 1   
    32    11    32 1   
    33    12    15 1   
    34    12    33 1   
    35    12    34 1   
@<TRIPOS>SUBSTRUCTURE
     1 QKD         1 TEMP              0 ****  ****    0 ROOT
