@<TRIPOS>MOLECULE
QKD
   34    35     1     0     0
SMALL
bcc


@<TRIPOS>ATOM
      1 C10          1.9890     1.8710     0.2580 c3         1 QKD       0.121000
      2 C13          2.4930    -0.3030    -0.8050 c          1 QKD       0.765100
      3 C17          5.1230    -1.4940     1.3880 c3         1 QKD      -0.099100
      4 C01         -2.6230     0.1490    -0.1560 cc         1 QKD      -0.065400
      5 C02         -3.9180     0.5620    -0.2550 cd         1 QKD      -0.138000
      6 C03         -4.8550    -0.4630     0.0540 cd         1 QKD      -0.152000
      7 C04         -4.2530    -1.6370     0.3880 cc         1 QKD      -0.116100
      8 C06         -1.3840     0.9460    -0.3960 c3         1 QKD       0.118700
      9 C07         -0.5250     0.3570    -1.5120 c3         1 QKD      -0.097400
     10 C08          0.7930     1.0750    -1.7850 c3         1 QKD       0.114000
     11 C11          0.6720     2.4000     0.8100 c3         1 QKD      -0.016300
     12 C16          4.1930    -1.5980     0.2030 c3         1 QKD       0.161400
     13 N09          1.8020     0.8570    -0.7620 n          1 QKD      -0.470800
     14 O14          2.3150    -1.1690    -1.6420 o          1 QKD      -0.599000
     15 O15          3.4090    -0.4010     0.1590 os         1 QKD      -0.436900
     16 S05         -2.5450    -1.5080     0.3240 ss         1 QKD      -0.057800
     17 S12         -0.5230     1.1010     1.2170 ss         1 QKD      -0.322200
     18 H1           2.5590     2.7170    -0.1430 h1         1 QKD       0.059700
     19 H2           2.5670     1.4550     1.0770 h1         1 QKD       0.059700
     20 H3           5.7420    -2.3890     1.4350 hc         1 QKD       0.046367
     21 H4           5.7850    -0.6320     1.3040 hc         1 QKD       0.046367
     22 H5           4.5720    -1.4190     2.3260 hc         1 QKD       0.046367
     23 H6          -4.1920     1.5680    -0.5410 ha         1 QKD       0.150000
     24 H7          -5.9270    -0.3290     0.0290 ha         1 QKD       0.152000
     25 H8          -4.7180    -2.5700     0.6650 h4         1 QKD       0.168000
     26 H9          -1.6980     1.9560    -0.6780 h1         1 QKD       0.067700
     27 H10         -0.3210    -0.6970    -1.3120 hc         1 QKD       0.069200
     28 H11         -1.1240     0.3870    -2.4270 hc         1 QKD       0.069200
     29 H12          1.1790     0.7390    -2.7470 h1         1 QKD       0.057200
     30 H13          0.6370     2.1510    -1.8850 h1         1 QKD       0.057200
     31 H14          0.8760     2.9510     1.7280 h1         1 QKD       0.071700
     32 H15          0.1900     3.1020     0.1280 h1         1 QKD       0.071700
     33 H16          4.7610    -1.7040    -0.7240 h1         1 QKD       0.049200
     34 H17          3.5430    -2.4690     0.2990 h1         1 QKD       0.049200
@<TRIPOS>BOND
     1     1    11 1   
     2     1    13 1   
     3     1    18 1   
     4     1    19 1   
     5     2    13 1   
     6     2    14 2   
     7     2    15 1   
     8     3    12 1   
     9     3    20 1   
    10     3    21 1   
    11     3    22 1   
    12     4     5 2   
    13     4     8 1   
    14     4    16 1   
    15     5     6 1   
    16     5    23 1   
    17     6     7 2   
    18     6    24 1   
    19     7    16 1   
    20     7    25 1   
    21     8     9 1   
    22     8    17 1   
    23     8    26 1   
    24     9    10 1   
    25     9    27 1   
    26     9    28 1   
    27    10    13 1   
    28    10    29 1   
    29    10    30 1   
    30    11    17 1   
    31    11    31 1   
    32    11    32 1   
    33    12    15 1   
    34    12    33 1   
    35    12    34 1   
@<TRIPOS>SUBSTRUCTURE
     1 QKD         1 TEMP              0 ****  ****    0 ROOT
