@<TRIPOS>MOLECULE
QKE
   48    50     1     0     0
SMALL
No Charge or Current Charge


@<TRIPOS>ATOM
      1 C4          21.0520   -11.9680    24.6100 ca         1 QKE      -0.112000
      2 C7          20.9330   -14.7500    24.2360 ca         1 QKE      -0.106500
      3 C6          22.1570   -14.0730    24.0940 ca         1 QKE      -0.112000
      4 C9          19.2210   -13.2940    21.2070 c5         1 QKE       0.109000
      5 C8          17.2600   -13.3680    22.8570 c          1 QKE       0.619100
      6 C18         12.2460    -8.8290    23.0750 cc         1 QKE       0.217000
      7 C16         12.6640   -10.5520    21.7440 cd         1 QKE      -0.141000
      8 C2          19.7620   -14.0390    24.5630 ca         1 QKE      -0.082300
      9 C3          19.8290   -12.6450    24.7550 ca         1 QKE      -0.106500
     10 C5          22.2160   -12.6810    24.2790 ca         1 QKE      -0.111000
     11 C10         19.8780   -12.0190    20.6280 c5         1 QKE      -0.095400
     12 C11         18.6450   -11.2400    20.1130 c5         1 QKE      -0.085400
     13 C12         17.6470   -11.3830    21.3020 c5         1 QKE       0.031700
     14 C14         14.5290    -9.3920    20.3200 c3         1 QKE       0.085700
     15 C15         13.4770    -9.5040    21.3900 cc         1 QKE       0.103300
     16 C17         11.8700   -10.1170    22.8280 cd         1 QKE      -0.170000
     17 N           16.5150   -15.7950    23.4480 n8         1 QKE      -0.978200
     18 C           17.6580   -14.8230    23.3320 c3         1 QKE       0.097500
     19 N1          17.9980   -12.7360    21.8250 n          1 QKE      -0.391800
     20 O2          13.2310    -8.4220    22.2100 os         1 QKE      -0.226000
     21 H1          21.0970   -10.8910    24.7540 ha         1 QKE       0.113000
     22 H2          20.8960   -15.8270    24.0830 ha         1 QKE       0.116500
     23 H3          23.0580   -14.6260    23.8380 ha         1 QKE       0.113000
     24 H4          18.9630   -14.0110    20.4170 h1         1 QKE       0.055200
     25 H5          19.8850   -13.7880    21.9250 h1         1 QKE       0.055200
     26 H6          12.6450   -11.5310    21.2750 ha         1 QKE       0.147000
     27 H9          18.9330   -12.0830    25.0060 ha         1 QKE       0.116500
     28 H10         23.1630   -12.1570    24.1670 ha         1 QKE       0.113000
     29 H11         20.6030   -12.2430    19.8370 hc         1 QKE       0.056700
     30 H12         20.4050   -11.4580    21.4090 hc         1 QKE       0.056700
     31 H13         18.8720   -10.1930    19.8790 hc         1 QKE       0.062700
     32 H14         18.2530   -11.7000    19.1970 hc         1 QKE       0.062700
     33 H15         17.8250   -10.6230    22.0750 h1         1 QKE       0.057700
     34 H16         14.6390    -8.3380    20.0330 h1         1 QKE       0.067200
     35 H17         14.2000    -9.9460    19.4300 h1         1 QKE       0.067200
     36 H18         11.1160   -10.6840    23.3630 ha         1 QKE       0.150000
     37 H19         16.8380   -16.6540    23.9100 hn         1 QKE       0.405500
     38 H20         15.8190   -15.4130    24.1010 hn         1 QKE       0.405500
     39 H22         18.3380   -15.2480    22.5830 h1         1 QKE       0.068700
     40 C1          18.4290   -14.7690    24.6780 c3         1 QKE      -0.070100
     41 O           16.3090   -12.7840    23.3730 o          1 QKE      -0.614100
     42 C13         16.1940   -11.2340    20.7420 c          1 QKE       0.605100
     43 N2          15.8360    -9.9010    20.7520 ns         1 QKE      -0.494900
     44 O1          15.4520   -12.1230    20.3400 o          1 QKE      -0.580100
     45 Cl          11.6870    -7.6960    24.2640 cl         1 QKE      -0.116000
     46 H7          17.8000   -14.2870    25.4370 hc         1 QKE       0.056700
     47 H8          18.6070   -15.7910    25.0370 hc         1 QKE       0.056700
     48 H23         16.5200    -9.2410    21.1050 hn         1 QKE       0.318500
@<TRIPOS>BOND
     1     1     9 ar  
     2     1    10 ar  
     3     1    21 1   
     4     2     3 ar  
     5     2     8 ar  
     6     2    22 1   
     7     3    10 ar  
     8     3    23 1   
     9     4    11 1   
    10     4    19 1   
    11     4    24 1   
    12     4    25 1   
    13     5    18 1   
    14     5    19 1   
    15     5    41 2   
    16     6    16 2   
    17     6    20 1   
    18     6    45 1   
    19     7    15 2   
    20     7    16 1   
    21     7    26 1   
    22     8     9 ar  
    23     8    40 1   
    24     9    27 1   
    25    10    28 1   
    26    11    12 1   
    27    11    29 1   
    28    11    30 1   
    29    12    13 1   
    30    12    31 1   
    31    12    32 1   
    32    13    19 1   
    33    13    33 1   
    34    13    42 1   
    35    14    15 1   
    36    14    34 1   
    37    14    35 1   
    38    14    43 1   
    39    15    20 1   
    40    16    36 1   
    41    17    18 1   
    42    17    37 1   
    43    17    38 1   
    44    18    39 1   
    45    18    40 1   
    46    40    46 1   
    47    40    47 1   
    48    42    43 1   
    49    42    44 2   
    50    43    48 1   
@<TRIPOS>SUBSTRUCTURE
     1 QKE         1 TEMP              0 ****  ****    0 ROOT
