@<TRIPOS>MOLECULE
QKE
   48    50     1     0     0
SMALL
bcc


@<TRIPOS>ATOM
      1 C4          21.0630   -11.7690    24.3300 ca         1 QKE      -0.130000
      2 C7          20.6240   -14.5030    24.3160 ca         1 QKE      -0.124500
      3 C6          21.8960   -14.0040    24.0710 ca         1 QKE      -0.130000
      4 C9          18.9980   -13.5090    21.0820 c5         1 QKE       0.109000
      5 C8          17.2290   -12.9860    22.7970 c          1 QKE       0.686100
      6 C18         12.7930   -10.3730    23.5040 cc         1 QKE       0.326700
      7 C16         12.6470   -10.6920    21.3280 cd         1 QKE      -0.224300
      8 C2          19.5540   -13.6470    24.5680 ca         1 QKE      -0.082300
      9 C3          19.7920   -12.2730    24.5740 ca         1 QKE      -0.124500
     10 C5          22.1200   -12.6330    24.0750 ca         1 QKE      -0.129000
     11 C10         19.8740   -12.4790    20.3830 c5         1 QKE      -0.095400
     12 C11         18.8760   -11.4030    19.9740 c5         1 QKE      -0.085400
     13 C12         17.9150   -11.3450    21.1680 c5         1 QKE       0.031700
     14 C14         14.7620    -9.2860    20.7430 c3         1 QKE       0.085700
     15 C15         13.7200    -9.9150    21.5990 cc         1 QKE       0.213000
     16 C17         12.0280   -10.9940    22.5810 cd         1 QKE      -0.253300
     17 N           16.0460   -14.9040    23.6280 n8         1 QKE      -0.867800
     18 C           17.3770   -14.3540    23.4520 c3         1 QKE       0.097500
     19 N1          17.9850   -12.6830    21.7330 n          1 QKE      -0.458800
     20 O2          13.8130    -9.7150    22.9390 os         1 QKE      -0.314800
     21 H1          21.2270   -10.6990    24.3420 ha         1 QKE       0.131000
     22 H2          20.4590   -15.5750    24.3120 ha         1 QKE       0.134500
     23 H3          22.7150   -14.6870    23.8790 ha         1 QKE       0.131000
     24 H4          18.5340   -14.1890    20.3620 h1         1 QKE       0.055200
     25 H5          19.5620   -14.1010    21.7990 h1         1 QKE       0.055200
     26 H6          12.3290   -11.0190    20.3520 ha         1 QKE       0.165000
     27 H9          18.9760   -11.5890    24.7740 ha         1 QKE       0.134500
     28 H10         23.1110   -12.2420    23.8870 ha         1 QKE       0.131000
     29 H11         20.4160   -12.9020    19.5390 hc         1 QKE       0.056700
     30 H12         20.6050   -12.0750    21.0870 hc         1 QKE       0.056700
     31 H13         19.3350   -10.4350    19.7800 hc         1 QKE       0.062700
     32 H14         18.3430   -11.7110    19.0730 hc         1 QKE       0.062700
     33 H15         18.2730   -10.6170    21.9050 h1         1 QKE       0.057700
     34 H16         14.7630    -8.2020    20.8700 h1         1 QKE       0.067200
     35 H17         14.5110    -9.4830    19.7010 h1         1 QKE       0.067200
     36 H18         11.1500   -11.5910    22.7630 ha         1 QKE       0.168000
     37 H19         16.1200   -15.8140    24.0660 hn         1 QKE       0.350300
     38 H20         15.5200   -14.3220    24.2680 hn         1 QKE       0.350300
     39 H22         17.9260   -15.0380    22.8030 h1         1 QKE       0.068700
     40 C1          18.1680   -14.1920    24.7680 c3         1 QKE      -0.070100
     41 O           16.4410   -12.1710    23.2680 o          1 QKE      -0.614100
     42 C13         16.4970   -11.0010    20.7300 c          1 QKE       0.672100
     43 N2          16.0970    -9.7570    21.0370 ns         1 QKE      -0.561900
     44 O1          15.8180   -11.7830    20.0870 o          1 QKE      -0.580100
     45 CL          12.6800   -10.2890    25.1930 cl         1 QKE      -0.116000
     46 H7          17.5980   -13.5420    25.4370 hc         1 QKE       0.056700
     47 H8          18.2190   -15.1750    25.2420 hc         1 QKE       0.056700
     48 H23         16.6650    -9.2020    21.6570 hn         1 QKE       0.318500
@<TRIPOS>BOND
     1     1     9 ar  
     2     1    10 ar  
     3     1    21 1   
     4     2     3 ar  
     5     2     8 ar  
     6     2    22 1   
     7     3    10 ar  
     8     3    23 1   
     9     4    11 1   
    10     4    19 1   
    11     4    24 1   
    12     4    25 1   
    13     5    18 1   
    14     5    19 1   
    15     5    41 2   
    16     6    16 2   
    17     6    20 1   
    18     6    45 1   
    19     7    15 2   
    20     7    16 1   
    21     7    26 1   
    22     8     9 ar  
    23     8    40 1   
    24     9    27 1   
    25    10    28 1   
    26    11    12 1   
    27    11    29 1   
    28    11    30 1   
    29    12    13 1   
    30    12    31 1   
    31    12    32 1   
    32    13    19 1   
    33    13    33 1   
    34    13    42 1   
    35    14    15 1   
    36    14    34 1   
    37    14    35 1   
    38    14    43 1   
    39    15    20 1   
    40    16    36 1   
    41    17    18 1   
    42    17    37 1   
    43    17    38 1   
    44    18    39 1   
    45    18    40 1   
    46    40    46 1   
    47    40    47 1   
    48    42    43 1   
    49    42    44 2   
    50    43    48 1   
@<TRIPOS>SUBSTRUCTURE
     1 QKE         1 TEMP              0 ****  ****    0 ROOT
