@<TRIPOS>MOLECULE
QKG
   41    43     1     0     0
SMALL
No Charge or Current Charge


@<TRIPOS>ATOM
      1 C10          2.0650    -0.7110     0.0080 c3         1 QKG      -0.092400
      2 C15         -1.1830    -0.1990    -0.4680 ca         1 QKG       0.039800
      3 C17         -2.8720    -1.8960    -0.2340 ca         1 QKG       0.177100
      4 C20         -3.6670    -0.9760     0.5060 ca         1 QKG      -0.229000
      5 C21         -3.2070     0.3350     0.7570 ca         1 QKG      -0.006000
      6 C22         -1.9470     0.7090     0.2560 cp         1 QKG      -0.134000
      7 C02          0.9100     2.9050    -0.4260 ca         1 QKG       0.346300
      8 N03          0.6120     4.0990     0.1550 nb         1 QKG      -0.668000
      9 C04         -0.5690     4.2290     0.8220 ca         1 QKG       0.308900
     10 C05         -1.5160     3.1910     0.9400 ca         1 QKG      -0.117000
     11 C06         -1.2070     1.9590     0.3410 cp         1 QKG      -0.039000
     12 C07          0.0070     1.8200    -0.3300 ca         1 QKG      -0.052200
     13 N08          0.0030     0.4830    -0.8030 na         1 QKG      -0.089600
     14 C09          1.2200    -0.2520    -1.1990 c3         1 QKG       0.078600
     15 C11          3.3600    -1.4490    -0.4100 c3         1 QKG      -0.160400
     16 C12          4.2500    -1.9380     0.7420 c          1 QKG       0.604100
     17 N13          5.3740    -2.5870     0.3750 nt         1 QKG      -0.614000
     18 O14          3.9930    -1.7690     1.9220 o          1 QKG      -0.597100
     19 C16         -1.6120    -1.5060    -0.7290 ca         1 QKG      -0.193000
     20 C19         -4.5550    -3.6910    -0.0400 c3         1 QKG       0.150900
     21 H102         2.3260     0.1600     0.6230 hc         1 QKG       0.072200
     22 H101         1.4560    -1.3720     0.6380 hc         1 QKG       0.072200
     23 H201        -4.6400    -1.2610     0.8940 ha         1 QKG       0.118000
     24 H211        -3.8110     1.0410     1.3230 ha         1 QKG       0.117000
     25 H011         2.0730     2.5780    -2.2260 hc         1 QKG       0.049033
     26 H012         2.7390     3.8260    -1.1730 hc         1 QKG       0.049033
     27 H013         2.9170     2.1300    -0.7250 hc         1 QKG       0.049033
     28 H041        -0.7640     5.2030     1.2690 h4         1 QKG       0.018100
     29 H051        -2.4500     3.3460     1.4730 ha         1 QKG       0.124000
     30 H091         1.8240     0.3700    -1.8670 h1         1 QKG       0.056700
     31 H092         0.9260    -1.1320    -1.7830 h1         1 QKG       0.056700
     32 H111         3.1500    -2.3090    -1.0580 hc         1 QKG       0.054700
     33 H112         3.9820    -0.8370    -1.0750 hc         1 QKG       0.054700
     34 H131         5.5820    -2.7240    -0.6030 hn         1 QKG       0.313500
     35 H132         6.0000    -2.9320     1.0870 hn         1 QKG       0.313500
     36 H161        -1.0020    -2.2050    -1.2940 ha         1 QKG       0.131000
     37 H193        -5.3830    -3.1040    -0.4570 h1         1 QKG       0.041367
     38 H191        -4.6840    -4.7330    -0.3570 h1         1 QKG       0.041367
     39 H192        -4.6150    -3.6590     1.0550 h1         1 QKG       0.041367
     40 O18         -3.2880    -3.1850    -0.4970 os         1 QKG      -0.344100
     41 C01          2.2310     2.8540    -1.1770 c3         1 QKG      -0.142400
@<TRIPOS>BOND
     1     1    14 1   
     2     1    15 1   
     3     1    21 1   
     4     1    22 1   
     5     2     6 ar  
     6     2    13 1   
     7     2    19 ar  
     8     3     4 ar  
     9     3    19 ar  
    10     3    40 1   
    11     4     5 ar  
    12     4    23 1   
    13     5     6 ar  
    14     5    24 1   
    15     6    11 1   
    16     7     8 ar  
    17     7    12 ar  
    18     7    41 1   
    19     8     9 ar  
    20     9    10 ar  
    21     9    28 1   
    22    10    11 ar  
    23    10    29 1   
    24    11    12 ar  
    25    12    13 1   
    26    13    14 1   
    27    14    30 1   
    28    14    31 1   
    29    15    16 1   
    30    15    32 1   
    31    15    33 1   
    32    16    17 1   
    33    16    18 2   
    34    17    34 1   
    35    17    35 1   
    36    19    36 1   
    37    20    37 1   
    38    20    38 1   
    39    20    39 1   
    40    20    40 1   
    41    25    41 1   
    42    26    41 1   
    43    27    41 1   
@<TRIPOS>SUBSTRUCTURE
     1 QKG         1 TEMP              0 ****  ****    0 ROOT
