@<TRIPOS>MOLECULE
QKG
   41    43     1     0     0
SMALL
abcg2


@<TRIPOS>ATOM
      1 C10          2.0490    -0.7990     0.0350 c3         1 QKG      -0.092400
      2 C15         -1.1030    -0.1090    -0.3270 ca         1 QKG       0.039800
      3 C17         -2.7040    -1.8590    -0.1180 ca         1 QKG       0.177100
      4 C20         -3.6280    -0.9490     0.4270 ca         1 QKG      -0.229000
      5 C21         -3.2820     0.3790     0.5940 ca         1 QKG      -0.006000
      6 C22         -2.0140     0.8120     0.2210 cp         1 QKG      -0.134000
      7 C02          0.8570     2.9370    -0.3330 ca         1 QKG       0.346300
      8 N03          0.4760     4.1350     0.0910 nb         1 QKG      -0.668000
      9 C04         -0.7500     4.3360     0.5810 ca         1 QKG       0.308900
     10 C05         -1.7000     3.3430     0.6920 ca         1 QKG      -0.117000
     11 C06         -1.3350     2.0730     0.2630 cp         1 QKG      -0.039000
     12 C07         -0.0420     1.8620    -0.2600 ca         1 QKG      -0.052200
     13 N08          0.0730     0.5320    -0.6300 na         1 QKG      -0.089600
     14 C09          1.2420    -0.1780    -1.1010 c3         1 QKG       0.078600
     15 C11          3.2580    -1.5400    -0.5090 c3         1 QKG      -0.160400
     16 C12          4.1150    -2.1780     0.5680 c          1 QKG       0.604100
     17 N13          5.2180    -2.7900     0.1090 nt         1 QKG      -0.614000
     18 O14          3.8220    -2.1420     1.7540 o          1 QKG      -0.597100
     19 C16         -1.4290    -1.4490    -0.4980 ca         1 QKG      -0.193000
     20 C19         -4.2330    -3.6700     0.0930 c3         1 QKG       0.150900
     21 H102         2.3650    -0.0130     0.7250 hc         1 QKG       0.072200
     22 H101         1.4130    -1.4780     0.6060 hc         1 QKG       0.072200
     23 H201        -4.6150    -1.2710     0.7260 ha         1 QKG       0.118000
     24 H211        -4.0010     1.0700     1.0170 ha         1 QKG       0.117000
     25 H011         2.2610     2.6310    -1.9460 hc         1 QKG       0.049033
     26 H012         2.7570     3.7960    -0.7250 hc         1 QKG       0.049033
     27 H013         2.8450     2.0720    -0.3810 hc         1 QKG       0.049033
     28 H041        -0.9760     5.3470     0.9010 h4         1 QKG       0.018100
     29 H051        -2.6810     3.5530     1.0980 ha         1 QKG       0.124000
     30 H091         1.8590     0.4970    -1.6890 h1         1 QKG       0.056700
     31 H092         0.9060    -0.9510    -1.7940 h1         1 QKG       0.056700
     32 H111         2.9410    -2.3250    -1.2030 hc         1 QKG       0.054700
     33 H112         3.8860    -0.8640    -1.0980 hc         1 QKG       0.054700
     34 H131         5.4540    -2.7980    -0.8680 hn         1 QKG       0.313500
     35 H132         5.8570    -3.2370     0.7450 hn         1 QKG       0.313500
     36 H161        -0.7300    -2.1680    -0.9060 ha         1 QKG       0.131000
     37 H193        -5.0550    -3.2030    -0.4550 h1         1 QKG       0.041367
     38 H191        -4.2220    -4.7330    -0.1340 h1         1 QKG       0.041367
     39 H192        -4.4050    -3.5430     1.1650 h1         1 QKG       0.041367
     40 O18         -2.9740    -3.1640    -0.3050 os         1 QKG      -0.344100
     41 C01          2.2530     2.8440    -0.8750 c3         1 QKG      -0.142400
@<TRIPOS>BOND
     1     1    14 1   
     2     1    15 1   
     3     1    21 1   
     4     1    22 1   
     5     2     6 ar  
     6     2    13 1   
     7     2    19 ar  
     8     3     4 ar  
     9     3    19 ar  
    10     3    40 1   
    11     4     5 ar  
    12     4    23 1   
    13     5     6 ar  
    14     5    24 1   
    15     6    11 1   
    16     7     8 ar  
    17     7    12 ar  
    18     7    41 1   
    19     8     9 ar  
    20     9    10 ar  
    21     9    28 1   
    22    10    11 ar  
    23    10    29 1   
    24    11    12 ar  
    25    12    13 1   
    26    13    14 1   
    27    14    30 1   
    28    14    31 1   
    29    15    16 1   
    30    15    32 1   
    31    15    33 1   
    32    16    17 1   
    33    16    18 2   
    34    17    34 1   
    35    17    35 1   
    36    19    36 1   
    37    20    37 1   
    38    20    38 1   
    39    20    39 1   
    40    20    40 1   
    41    25    41 1   
    42    26    41 1   
    43    27    41 1   
@<TRIPOS>SUBSTRUCTURE
     1 QKG         1 TEMP              0 ****  ****    0 ROOT
