@<TRIPOS>MOLECULE
QKH
  168   175     1     0     0
SMALL
abcg2


@<TRIPOS>ATOM
      1 O67         -5.4560     1.4140    37.7000 oh         1 QKH      -0.719000
      2 C67         -5.6460     2.4370    36.7520 c3         1 QKH       0.157600
      3 C57         -5.5530     3.7890    37.4250 c6         1 QKH       0.144300
      4 C47         -4.2470     4.0410    38.1970 c6         1 QKH       0.153300
      5 O47         -3.1600     4.1670    37.3090 os         1 QKH      -0.488000
      6 O57         -6.6750     3.8830    38.3000 os         1 QKH      -0.469000
      7 C17         -6.8260     5.1100    38.9530 c6         1 QKH       0.377300
      8 C27         -5.6010     5.3960    39.8140 c6         1 QKH       0.139300
      9 C37         -4.3300     5.3560    38.9740 c6         1 QKH       0.153300
     10 O37         -3.2240     5.4880    39.8270 os         1 QKH      -0.454000
     11 C81         -2.3270     6.5160    39.4860 c3         1 QKH       0.156900
     12 O27         -5.7590     6.6550    40.4270 os         1 QKH      -0.460000
     13 C82         -5.5480     6.6660    41.8250 c3         1 QKH       0.145900
     14 O46         -6.9860     6.1590    38.0520 os         1 QKH      -0.485000
     15 C46         -8.2960     6.6060    37.7630 c6         1 QKH       0.111300
     16 C36         -8.3810     8.0760    38.1730 c6         1 QKH       0.172300
     17 O36         -8.2250     8.2270    39.5590 oh         1 QKH      -0.721000
     18 C26         -9.7450     8.6170    37.7780 c6         1 QKH       0.142300
     19 O26         -9.7990     9.9920    38.0660 os         1 QKH      -0.441000
     20 C83        -11.1040    10.4850    38.2910 c3         1 QKH       0.140900
     21 C56         -8.6090     6.4300    36.2780 c6         1 QKH       0.125300
     22 C66         -8.6090     4.9880    35.7910 c3         1 QKH       0.168600
     23 O66         -9.3140     4.0880    36.6090 oh         1 QKH      -0.713000
     24 O56         -9.8980     6.9760    36.0280 os         1 QKH      -0.450000
     25 C16        -10.0190     8.3390    36.2910 c6         1 QKH       0.364300
     26 O45         -9.1270     9.0950    35.5280 os         1 QKH      -0.492000
     27 C45         -9.6180     9.9110    34.4870 c6         1 QKH       0.122300
     28 C35         -8.9450    11.2760    34.6300 c6         1 QKH       0.175300
     29 O35         -9.3020    11.9070    35.8300 oh         1 QKH      -0.722000
     30 C25         -9.3890    12.1610    33.4760 c6         1 QKH       0.141300
     31 O25         -8.7270    13.3980    33.5530 os         1 QKH      -0.441000
     32 C79         -9.4520    14.4750    32.9920 c3         1 QKH       0.140900
     33 C55         -9.3060     9.3080    33.1140 c6         1 QKH       0.155300
     34 C65         -9.9690     7.9770    32.8500 c3         1 QKH       0.160600
     35 O65        -11.3410     8.0480    33.1250 os         1 QKH      -0.454000
     36 C78        -11.9750     6.8010    33.0010 c3         1 QKH       0.142900
     37 O55         -9.7380    10.2180    32.1080 os         1 QKH      -0.454000
     38 C15         -9.1120    11.4640    32.1360 c6         1 QKH       0.364300
     39 O44         -7.7310    11.3400    31.9730 os         1 QKH      -0.493000
     40 C44         -7.1010    11.8270    30.8060 c6         1 QKH       0.124300
     41 C34         -5.9080    12.6650    31.2730 c6         1 QKH       0.176300
     42 O34         -6.3220    13.8310    31.9290 oh         1 QKH      -0.723000
     43 C24         -5.0770    13.0660    30.0680 c6         1 QKH       0.148300
     44 O24         -3.9450    13.7850    30.4880 os         1 QKH      -0.436000
     45 C80         -3.5120    14.7640    29.5640 c3         1 QKH       0.139900
     46 C54         -6.6640    10.6620    29.9100 c6         1 QKH       0.112300
     47 C64         -7.8440     9.9770    29.2400 c3         1 QKH       0.159600
     48 O64         -7.4660     8.8660    28.4630 oh         1 QKH      -0.712000
     49 O54         -5.8230    11.1330    28.8630 os         1 QKH      -0.491000
     50 C14         -4.6750    11.8200    29.2740 c6         1 QKH       0.364300
     51 O43         -3.8520    11.0280    30.0670 os         1 QKH      -0.483000
     52 C43         -2.6800    10.4700    29.5030 c6         1 QKH       0.112300
     53 C33         -1.4940    10.8980    30.3680 c6         1 QKH       0.140300
     54 O33         -1.3360    12.2910    30.3710 oh         1 QKH      -0.715000
     55 C23         -0.2230    10.2670    29.8060 c6         1 QKH       0.158300
     56 O23          0.9300    10.5890    30.5290 oh         1 QKH      -0.705000
     57 C53         -2.7700     8.9460    29.4410 c6         1 QKH       0.127300
     58 C63         -3.8950     8.4020    28.5730 c3         1 QKH       0.161600
     59 O63         -4.0120     9.0170    27.3120 oh         1 QKH      -0.712000
     60 O53         -1.5410     8.4510    28.9200 os         1 QKH      -0.451000
     61 C13         -0.4110     8.7500    29.6790 c6         1 QKH       0.355300
     62 O42         -0.5170     8.2050    30.9660 os         1 QKH      -0.501000
     63 C42          0.3650     7.1890    31.3900 c6         1 QKH       0.168300
     64 C32          0.8540     7.5800    32.7760 c6         1 QKH       0.170300
     65 O32          1.6240     8.7550    32.6430 oh         1 QKH      -0.727000
     66 C22          1.6700     6.4480    33.3770 c6         1 QKH       0.124300
     67 O22          2.0890     6.8560    34.6490 oh         1 QKH      -0.709000
     68 C52         -0.3630     5.8390    31.4380 c6         1 QKH       0.107300
     69 C62         -0.6480     5.3030    30.0420 c3         1 QKH       0.159600
     70 O62         -1.4590     4.1540    30.0380 oh         1 QKH      -0.710000
     71 O52          0.4230     4.8530    32.0970 os         1 QKH      -0.495000
     72 C12          0.8470     5.1570    33.4030 c6         1 QKH       0.359300
     73 O41         -0.2170     5.2840    34.2840 os         1 QKH      -0.468000
     74 C41         -0.5870     4.1500    35.0440 c6         1 QKH       0.144300
     75 C51         -2.0550     3.8040    34.7720 c6         1 QKH       0.125300
     76 C61         -2.3300     3.3500    33.3460 c3         1 QKH       0.163600
     77 O61         -1.4520     2.3540    32.8760 oh         1 QKH      -0.710000
     78 O51         -2.4630     2.7540    35.6360 os         1 QKH      -0.453000
     79 C11         -2.3830     3.0510    36.9980 c6         1 QKH       0.357300
     80 C31         -0.3570     4.4480    36.5240 c6         1 QKH       0.167300
     81 O31          1.0260     4.5930    36.7290 os         1 QKH      -0.466000
     82 C84          1.3940     5.6360    37.6020 c3         1 QKH       0.150900
     83 C21         -0.9200     3.3110    37.3690 c6         1 QKH       0.121300
     84 O21         -0.7630     3.6260    38.7240 oh         1 QKH      -0.698000
     85 HO67        -5.3840     0.5790    37.2300 ho         1 QKH       0.508000
     86 H671        -6.6340     2.3660    36.2730 h1         1 QKH       0.040200
     87 H672        -4.9100     2.3950    35.9460 h1         1 QKH       0.040200
     88 H57         -5.6220     4.5430    36.6300 h1         1 QKH       0.062700
     89 H47         -4.0760     3.2260    38.9120 h1         1 QKH       0.071700
     90 H17         -7.7120     5.0000    39.5900 h2         1 QKH       0.084700
     91 H27         -5.5490     4.6030    40.5730 h1         1 QKH       0.069700
     92 H37         -4.3650     6.1840    38.2510 h1         1 QKH       0.076700
     93 H811        -1.4980     6.4760    40.1920 h1         1 QKH       0.033033
     94 H812        -1.9200     6.3980    38.4800 h1         1 QKH       0.033033
     95 H813        -2.7930     7.5040    39.5580 h1         1 QKH       0.033033
     96 H821        -4.5270     6.3820    42.0840 h1         1 QKH       0.038700
     97 H822        -5.7270     7.6830    42.1720 h1         1 QKH       0.038700
     98 H823        -6.2400     5.9960    42.3450 h1         1 QKH       0.038700
     99 H46         -9.0330     6.0420    38.3500 h1         1 QKH       0.066700
    100 H36         -7.6000     8.6280    37.6280 h1         1 QKH       0.067700
    101 HO36        -7.3650     7.8610    39.8100 ho         1 QKH       0.533000
    102 H26        -10.5120     8.0810    38.3570 h1         1 QKH       0.063700
    103 H831       -11.5940     9.9520    39.1110 h1         1 QKH       0.035367
    104 H832       -11.0160    11.5350    38.5630 h1         1 QKH       0.035367
    105 H833       -11.7440    10.4140    37.4060 h1         1 QKH       0.035367
    106 H56         -7.8520     6.9560    35.6800 h1         1 QKH       0.064700
    107 H661        -9.0750     4.9760    34.8010 h1         1 QKH       0.047700
    108 H662        -7.5720     4.6750    35.6370 h1         1 QKH       0.047700
    109 HO66        -8.7060     3.7420    37.2710 ho         1 QKH       0.513000
    110 H16        -11.0540     8.5940    36.0380 h2         1 QKH       0.084700
    111 H45        -10.7040    10.0460    34.5830 h1         1 QKH       0.069700
    112 H35         -7.8560    11.1280    34.5730 h1         1 QKH       0.066700
    113 HO35        -9.1640    11.2810    36.5550 ho         1 QKH       0.537000
    114 H25        -10.4760    12.3080    33.5530 h1         1 QKH       0.064700
    115 H791       -10.3910    14.6420    33.5290 h1         1 QKH       0.035367
    116 H792        -8.8360    15.3680    33.0830 h1         1 QKH       0.035367
    117 H793        -9.6850    14.3240    31.9340 h1         1 QKH       0.035367
    118 H55         -8.2250     9.1360    33.0340 h1         1 QKH       0.068700
    119 H651        -9.4790     7.2150    33.4660 h1         1 QKH       0.039700
    120 H652        -9.7870     7.6920    31.8030 h1         1 QKH       0.039700
    121 H781       -13.0250     6.9290    33.2640 h1         1 QKH       0.032700
    122 H782       -11.9190     6.4100    31.9780 h1         1 QKH       0.032700
    123 H783       -11.5360     6.0540    33.6730 h1         1 QKH       0.032700
    124 H15         -9.5510    12.0330    31.3090 h2         1 QKH       0.071700
    125 H44         -7.7850    12.4790    30.2410 h1         1 QKH       0.049700
    126 H34         -5.2980    12.0350    31.9380 h1         1 QKH       0.071700
    127 HO34        -6.9340    13.5840    32.6380 ho         1 QKH       0.539000
    128 H24         -5.6990    13.6890    29.4090 h1         1 QKH       0.059700
    129 H801        -2.6290    15.2430    29.9840 h1         1 QKH       0.037033
    130 H802        -3.2420    14.3380    28.5930 h1         1 QKH       0.037033
    131 H803        -4.2800    15.5250    29.4040 h1         1 QKH       0.037033
    132 H54         -6.1290     9.9250    30.5270 h1         1 QKH       0.076700
    133 H641        -8.4030    10.7160    28.6510 h1         1 QKH       0.057200
    134 H642        -8.5160     9.6040    30.0120 h1         1 QKH       0.057200
    135 HO64        -7.0600     9.1820    27.6520 ho         1 QKH       0.508000
    136 H14         -4.1660    12.1100    28.3470 h2         1 QKH       0.076700
    137 H43         -2.5220    10.8600    28.4870 h1         1 QKH       0.064700
    138 H33         -1.6620    10.5230    31.3900 h1         1 QKH       0.053700
    139 HO33        -2.1650    12.6850    30.6770 ho         1 QKH       0.529000
    140 H23         -0.0720    10.6580    28.7930 h1         1 QKH       0.088700
    141 HO23         0.9730    10.0550    31.3390 ho         1 QKH       0.531000
    142 H53         -2.9410     8.5490    30.4500 h1         1 QKH       0.064700
    143 H631        -4.8290     8.4500    29.1370 h1         1 QKH       0.060200
    144 H632        -3.6970     7.3380    28.4100 h1         1 QKH       0.060200
    145 HO63        -4.6370     9.7440    27.3890 ho         1 QKH       0.502000
    146 H13          0.4400     8.3130    29.1440 h2         1 QKH       0.081700
    147 H42          1.2280     7.1180    30.7110 h1         1 QKH       0.060700
    148 H32         -0.0220     7.7660    33.4130 h1         1 QKH       0.073700
    149 HO32         1.7960     9.1160    33.5190 ho         1 QKH       0.531000
    150 H22          2.5300     6.2520    32.7200 h1         1 QKH       0.056700
    151 HO22         2.6690     6.1840    35.0190 ho         1 QKH       0.519000
    152 H52         -1.3150     5.9870    31.9660 h1         1 QKH       0.072700
    153 H621         0.3070     5.1290    29.5280 h1         1 QKH       0.061200
    154 H622        -1.1880     6.0610    29.4770 h1         1 QKH       0.061200
    155 HO62        -0.9450     3.4070    30.3560 ho         1 QKH       0.508000
    156 H12          1.4940     4.3180    33.6890 h2         1 QKH       0.075700
    157 H41          0.0320     3.2840    34.7730 h1         1 QKH       0.063700
    158 H51         -2.6720     4.6960    34.9400 h1         1 QKH       0.067700
    159 H611        -2.3420     4.2250    32.6930 h1         1 QKH       0.059700
    160 H612        -3.3400     2.9350    33.3190 h1         1 QKH       0.059700
    161 HO61        -0.6440     2.7850    32.5790 ho         1 QKH       0.503000
    162 H11         -2.7510     2.1610    37.5220 h2         1 QKH       0.077700
    163 H31         -0.8830     5.3810    36.7740 h1         1 QKH       0.075700
    164 H841         1.0770     5.4530    38.6310 h1         1 QKH       0.036033
    165 H842         2.4820     5.7060    37.5870 h1         1 QKH       0.036033
    166 H843         0.9850     6.5980    37.2790 h1         1 QKH       0.036033
    167 H21         -0.3680     2.3940    37.1090 h1         1 QKH       0.054700
    168 HO21        -1.0180     2.8620    39.2510 ho         1 QKH       0.509000
@<TRIPOS>BOND
     1     1     2 1   
     2     1    85 1   
     3     2     3 1   
     4     2    86 1   
     5     2    87 1   
     6     3     4 1   
     7     3     6 1   
     8     3    88 1   
     9     4     5 1   
    10     4     9 1   
    11     4    89 1   
    12     5    79 1   
    13     6     7 1   
    14     7     8 1   
    15     7    14 1   
    16     7    90 1   
    17     8     9 1   
    18     8    12 1   
    19     8    91 1   
    20     9    10 1   
    21     9    92 1   
    22    10    11 1   
    23    11    93 1   
    24    11    94 1   
    25    11    95 1   
    26    12    13 1   
    27    13    96 1   
    28    13    97 1   
    29    13    98 1   
    30    14    15 1   
    31    15    16 1   
    32    15    21 1   
    33    15    99 1   
    34    16    17 1   
    35    16    18 1   
    36    16   100 1   
    37    17   101 1   
    38    18    19 1   
    39    18    25 1   
    40    18   102 1   
    41    19    20 1   
    42    20   103 1   
    43    20   104 1   
    44    20   105 1   
    45    21    22 1   
    46    21    24 1   
    47    21   106 1   
    48    22    23 1   
    49    22   107 1   
    50    22   108 1   
    51    23   109 1   
    52    24    25 1   
    53    25    26 1   
    54    25   110 1   
    55    26    27 1   
    56    27    28 1   
    57    27    33 1   
    58    27   111 1   
    59    28    29 1   
    60    28    30 1   
    61    28   112 1   
    62    29   113 1   
    63    30    31 1   
    64    30    38 1   
    65    30   114 1   
    66    31    32 1   
    67    32   115 1   
    68    32   116 1   
    69    32   117 1   
    70    33    34 1   
    71    33    37 1   
    72    33   118 1   
    73    34    35 1   
    74    34   119 1   
    75    34   120 1   
    76    35    36 1   
    77    36   121 1   
    78    36   122 1   
    79    36   123 1   
    80    37    38 1   
    81    38    39 1   
    82    38   124 1   
    83    39    40 1   
    84    40    41 1   
    85    40    46 1   
    86    40   125 1   
    87    41    42 1   
    88    41    43 1   
    89    41   126 1   
    90    42   127 1   
    91    43    44 1   
    92    43    50 1   
    93    43   128 1   
    94    44    45 1   
    95    45   129 1   
    96    45   130 1   
    97    45   131 1   
    98    46    47 1   
    99    46    49 1   
   100    46   132 1   
   101    47    48 1   
   102    47   133 1   
   103    47   134 1   
   104    48   135 1   
   105    49    50 1   
   106    50    51 1   
   107    50   136 1   
   108    51    52 1   
   109    52    53 1   
   110    52    57 1   
   111    52   137 1   
   112    53    54 1   
   113    53    55 1   
   114    53   138 1   
   115    54   139 1   
   116    55    56 1   
   117    55    61 1   
   118    55   140 1   
   119    56   141 1   
   120    57    58 1   
   121    57    60 1   
   122    57   142 1   
   123    58    59 1   
   124    58   143 1   
   125    58   144 1   
   126    59   145 1   
   127    60    61 1   
   128    61    62 1   
   129    61   146 1   
   130    62    63 1   
   131    63    64 1   
   132    63    68 1   
   133    63   147 1   
   134    64    65 1   
   135    64    66 1   
   136    64   148 1   
   137    65   149 1   
   138    66    67 1   
   139    66    72 1   
   140    66   150 1   
   141    67   151 1   
   142    68    69 1   
   143    68    71 1   
   144    68   152 1   
   145    69    70 1   
   146    69   153 1   
   147    69   154 1   
   148    70   155 1   
   149    71    72 1   
   150    72    73 1   
   151    72   156 1   
   152    73    74 1   
   153    74    75 1   
   154    74    80 1   
   155    74   157 1   
   156    75    76 1   
   157    75    78 1   
   158    75   158 1   
   159    76    77 1   
   160    76   159 1   
   161    76   160 1   
   162    77   161 1   
   163    78    79 1   
   164    79    83 1   
   165    79   162 1   
   166    80    81 1   
   167    80    83 1   
   168    80   163 1   
   169    81    82 1   
   170    82   164 1   
   171    82   165 1   
   172    82   166 1   
   173    83    84 1   
   174    83   167 1   
   175    84   168 1   
@<TRIPOS>SUBSTRUCTURE
     1 QKH         1 TEMP              0 ****  ****    0 ROOT
