@<TRIPOS>MOLECULE
QKH
  168   175     1     0     0
SMALL
No Charge or Current Charge


@<TRIPOS>ATOM
      1 O67         -5.0010     1.1470    39.5630 oh         1 QKH      -0.719000
      2 C67         -4.9270     1.7670    38.2610 c3         1 QKH       0.157600
      3 C57         -5.0680     3.3320    38.3070 c6         1 QKH       0.144300
      4 C47         -3.9120     4.0500    39.1140 c6         1 QKH       0.153300
      5 O47         -2.7450     4.3080    38.2680 os         1 QKH      -0.488000
      6 O57         -6.3850     3.5530    38.8720 os         1 QKH      -0.469000
      7 C17         -6.7460     4.9130    39.1050 c6         1 QKH       0.377300
      8 C27         -5.8270     5.5180    40.1880 c6         1 QKH       0.139300
      9 C37         -4.3370     5.4490    39.7210 c6         1 QKH       0.153300
     10 O37         -3.4820     5.8120    40.8450 os         1 QKH      -0.454000
     11 C81         -2.0810     6.0250    40.6030 c3         1 QKH       0.156900
     12 O27         -6.2970     6.8710    40.4880 os         1 QKH      -0.460000
     13 C82         -5.7080     7.5750    41.5990 c3         1 QKH       0.145900
     14 O46         -6.6680     5.6520    37.8640 os         1 QKH      -0.485000
     15 C46         -7.9300     6.0490    37.2700 c6         1 QKH       0.111300
     16 C36         -8.5270     7.3490    37.9140 c6         1 QKH       0.172300
     17 O36         -8.7020     7.2280    39.3430 oh         1 QKH      -0.721000
     18 C26         -9.8700     7.7190    37.2060 c6         1 QKH       0.142300
     19 O26        -10.4520     8.9320    37.7670 os         1 QKH      -0.441000
     20 C83        -11.7980     9.2610    37.3770 c3         1 QKH       0.140900
     21 C56         -7.7500     6.2880    35.7440 c6         1 QKH       0.125300
     22 C66         -7.1730     5.0440    34.9870 c3         1 QKH       0.168600
     23 O66         -8.0450     3.8940    34.9880 oh         1 QKH      -0.713000
     24 O56         -9.0240     6.6350    35.1450 os         1 QKH      -0.450000
     25 C16         -9.6400     7.8330    35.6640 c6         1 QKH       0.364300
     26 O45         -8.8000     8.9710    35.3610 os         1 QKH      -0.492000
     27 C45         -9.3420     9.9510    34.4360 c6         1 QKH       0.122300
     28 C35         -8.8550    11.3600    34.8690 c6         1 QKH       0.175300
     29 O35         -9.2370    11.6000    36.2410 oh         1 QKH      -0.722000
     30 C25         -9.3930    12.4500    33.8900 c6         1 QKH       0.141300
     31 O25         -8.9550    13.7840    34.2840 os         1 QKH      -0.441000
     32 C79         -9.4930    14.9010    33.5530 c3         1 QKH       0.140900
     33 C55         -8.9540     9.6870    32.9480 c6         1 QKH       0.155300
     34 C65         -9.5100     8.3540    32.3640 c3         1 QKH       0.160600
     35 O65        -10.9280     8.2440    32.6140 os         1 QKH      -0.454000
     36 C78        -11.5180     7.0170    32.1550 c3         1 QKH       0.142900
     37 O55         -9.4470    10.7620    32.1020 os         1 QKH      -0.454000
     38 C15         -8.9680    12.0810    32.4290 c6         1 QKH       0.364300
     39 O44         -7.5300    12.1060    32.3050 os         1 QKH      -0.493000
     40 C44         -6.9560    12.5610    31.0500 c6         1 QKH       0.124300
     41 C34         -5.5420    13.1150    31.3950 c6         1 QKH       0.176300
     42 O34         -5.6640    14.1800    32.3620 oh         1 QKH      -0.723000
     43 C24         -4.7730    13.5430    30.1100 c6         1 QKH       0.148300
     44 O24         -3.4510    14.0750    30.4130 os         1 QKH      -0.436000
     45 C80         -2.7950    14.8160    29.3660 c3         1 QKH       0.139900
     46 C54         -6.8610    11.4480    29.9460 c6         1 QKH       0.112300
     47 C64         -8.2370    11.0320    29.3330 c3         1 QKH       0.159600
     48 O64         -8.0880    10.6800    27.9510 oh         1 QKH      -0.712000
     49 O54         -6.0410    11.8940    28.8170 os         1 QKH      -0.491000
     50 C14         -4.7040    12.3120    29.1580 c6         1 QKH       0.364300
     51 O43         -4.0420    11.2120    29.8170 os         1 QKH      -0.483000
     52 C43         -3.0120    10.5000    29.0950 c6         1 QKH       0.112300
     53 C33         -1.6770    10.6420    29.8910 c6         1 QKH       0.140300
     54 O33         -1.3010    12.0320    29.9830 oh         1 QKH      -0.715000
     55 C23         -0.5520     9.7510    29.2670 c6         1 QKH       0.158300
     56 O23          0.6780     9.8310    30.0320 oh         1 QKH      -0.705000
     57 C53         -3.4040     9.0020    28.9130 c6         1 QKH       0.127300
     58 C63         -4.6380     8.7810    27.9770 c3         1 QKH       0.161600
     59 O63         -4.3910     9.0820    26.5840 oh         1 QKH      -0.712000
     60 O53         -2.2900     8.2390    28.3750 os         1 QKH      -0.451000
     61 C13         -1.0920     8.2820    29.1730 c6         1 QKH       0.355300
     62 O42         -1.4050     7.7320    30.4730 os         1 QKH      -0.501000
     63 C42         -0.3820     6.9590    31.1410 c6         1 QKH       0.168300
     64 C32         -0.0980     7.5490    32.5540 c6         1 QKH       0.170300
     65 O32          0.3900     8.9050    32.4980 oh         1 QKH      -0.727000
     66 C22          0.9140     6.6600    33.3270 c6         1 QKH       0.124300
     67 O22          1.1380     7.2150    34.6460 oh         1 QKH      -0.709000
     68 C52         -0.8280     5.4730    31.2630 c6         1 QKH       0.107300
     69 C62         -0.9680     4.7760    29.8790 c3         1 QKH       0.159600
     70 O62         -0.9630     3.3500    30.0320 oh         1 QKH      -0.710000
     71 O52          0.1250     4.6960    32.0450 os         1 QKH      -0.495000
     72 C12          0.3670     5.1960    33.3790 c6         1 QKH       0.359300
     73 O41         -0.8610     5.1310    34.1360 os         1 QKH      -0.468000
     74 C41         -0.9240     4.1350    35.1850 c6         1 QKH       0.144300
     75 C51         -2.4130     3.7820    35.4550 c6         1 QKH       0.125300
     76 C61         -3.1630     3.2370    34.1940 c3         1 QKH       0.163600
     77 O61         -2.7170     1.9350    33.7550 oh         1 QKH      -0.710000
     78 O51         -2.5070     2.7850    36.4990 os         1 QKH      -0.453000
     79 C11         -1.9780     3.1850    37.7770 c6         1 QKH       0.357300
     80 C31         -0.2500     4.6240    36.5150 c6         1 QKH       0.167300
     81 O31          1.1460     4.9780    36.2550 os         1 QKH      -0.466000
     82 C84          1.9340     5.5650    37.3130 c3         1 QKH       0.150900
     83 C21         -0.4490     3.5310    37.6350 c6         1 QKH       0.121300
     84 O21          0.1210     3.9190    38.9110 oh         1 QKH      -0.698000
     85 HO67        -5.1140     0.1790    39.4170 ho         1 QKH       0.508000
     86 H671        -5.7410     1.3900    37.6270 h1         1 QKH       0.040200
     87 H672        -3.9990     1.4720    37.7670 h1         1 QKH       0.040200
     88 H57         -5.0660     3.7100    37.2750 h1         1 QKH       0.062700
     89 H47         -3.6110     3.4020    39.9500 h1         1 QKH       0.071700
     90 H17         -7.7760     4.9290    39.4920 h2         1 QKH       0.084700
     91 H27         -5.9380     4.9050    41.0940 h1         1 QKH       0.069700
     92 H37         -4.2140     6.2070    38.9340 h1         1 QKH       0.076700
     93 H811        -1.6160     6.5100    41.4700 h1         1 QKH       0.033033
     94 H812        -1.5690     5.0700    40.4440 h1         1 QKH       0.033033
     95 H813        -1.9250     6.6660    39.7260 h1         1 QKH       0.033033
     96 H821        -4.6910     7.9100    41.3610 h1         1 QKH       0.038700
     97 H822        -6.3000     8.4670    41.8380 h1         1 QKH       0.038700
     98 H823        -5.6730     6.9400    42.4930 h1         1 QKH       0.038700
     99 H46         -8.6510     5.2280    37.4000 h1         1 QKH       0.066700
    100 H36         -7.8180     8.1670    37.7110 h1         1 QKH       0.067700
    101 HO36        -7.7880     7.2060    39.7370 ho         1 QKH       0.533000
    102 H26        -10.5770     6.8960    37.3790 h1         1 QKH       0.063700
    103 H831       -12.4870     8.4440    37.6300 h1         1 QKH       0.035367
    104 H832       -12.1350    10.1640    37.9000 h1         1 QKH       0.035367
    105 H833       -11.8660     9.4510    36.2990 h1         1 QKH       0.035367
    106 H56         -7.0460     7.1200    35.5920 h1         1 QKH       0.064700
    107 H661        -6.9750     5.3540    33.9520 h1         1 QKH       0.047700
    108 H662        -6.2000     4.7870    35.4280 h1         1 QKH       0.047700
    109 HO66        -8.0590     3.5430    35.9070 ho         1 QKH       0.513000
    110 H16        -10.6210     7.9510    35.1800 h2         1 QKH       0.084700
    111 H45        -10.4390     9.9520    34.5120 h1         1 QKH       0.069700
    112 H35         -7.7570    11.3620    34.7960 h1         1 QKH       0.066700
    113 HO35        -9.2000    10.7130    36.6750 ho         1 QKH       0.537000
    114 H25        -10.4920    12.4320    33.9330 h1         1 QKH       0.064700
    115 H791       -10.5910    14.8940    33.5800 h1         1 QKH       0.035367
    116 H792        -9.1480    15.8440    33.9940 h1         1 QKH       0.035367
    117 H793        -9.1690    14.8820    32.5040 h1         1 QKH       0.035367
    118 H55         -7.8580     9.6500    32.8650 h1         1 QKH       0.068700
    119 H651        -8.9670     7.5160    32.8180 h1         1 QKH       0.039700
    120 H652        -9.3060     8.3300    31.2860 h1         1 QKH       0.039700
    121 H781       -12.5920     7.0040    32.3770 h1         1 QKH       0.032700
    122 H782       -11.3900     6.9050    31.0710 h1         1 QKH       0.032700
    123 H783       -11.0560     6.1530    32.6510 h1         1 QKH       0.032700
    124 H15         -9.4180    12.8080    31.7380 h2         1 QKH       0.071700
    125 H44         -7.5590    13.3950    30.6620 h1         1 QKH       0.049700
    126 H34         -4.9780    12.2880    31.8540 h1         1 QKH       0.071700
    127 HO34        -6.3460    13.8580    32.9990 ho         1 QKH       0.539000
    128 H24         -5.3550    14.3320    29.6130 h1         1 QKH       0.059700
    129 H801        -1.8220    15.1870    29.7150 h1         1 QKH       0.037033
    130 H802        -2.6220    14.1900    28.4820 h1         1 QKH       0.037033
    131 H803        -3.3990    15.6820    29.0660 h1         1 QKH       0.037033
    132 H54         -6.4010    10.5500    30.3840 h1         1 QKH       0.076700
    133 H641        -8.9420    11.8690    29.4350 h1         1 QKH       0.057200
    134 H642        -8.6380    10.1800    29.8950 h1         1 QKH       0.057200
    135 HO64        -7.2270    11.1110    27.7170 ho         1 QKH       0.508000
    136 H14         -4.1690    12.5990    28.2410 h2         1 QKH       0.076700
    137 H43         -2.8700    10.9480    28.1010 h1         1 QKH       0.064700
    138 H33         -1.8700    10.2610    30.9060 h1         1 QKH       0.053700
    139 HO33        -2.1020    12.5110    30.3080 ho         1 QKH       0.529000
    140 H23         -0.3710    10.1000    28.2390 h1         1 QKH       0.088700
    141 HO23         0.4640     9.5080    30.9580 ho         1 QKH       0.531000
    142 H53         -3.6690     8.5920    29.8980 h1         1 QKH       0.064700
    143 H631        -5.4780     9.3750    28.3590 h1         1 QKH       0.060200
    144 H632        -4.9340     7.7280    28.0770 h1         1 QKH       0.060200
    145 HO63        -4.3120    10.0590    26.5020 ho         1 QKH       0.502000
    146 H13         -0.3330     7.6570    28.6770 h2         1 QKH       0.081700
    147 H42          0.5520     6.9970    30.5590 h1         1 QKH       0.060700
    148 H32         -1.0490     7.5300    33.1090 h1         1 QKH       0.073700
    149 HO32         0.7840     9.0440    33.3970 ho         1 QKH       0.531000
    150 H22          1.8610     6.6400    32.7690 h1         1 QKH       0.056700
    151 HO22         1.1190     6.4450    35.2750 ho         1 QKH       0.519000
    152 H52         -1.8070     5.4350    31.7630 h1         1 QKH       0.072700
    153 H621        -0.1270     5.0890    29.2450 h1         1 QKH       0.061200
    154 H622        -1.8930     5.1210    29.3960 h1         1 QKH       0.061200
    155 HO62        -0.3880     3.2070    30.8230 ho         1 QKH       0.508000
    156 H12          1.1330     4.5600    33.8490 h2         1 QKH       0.075700
    157 H41         -0.4140     3.2230    34.8420 h1         1 QKH       0.063700
    158 H51         -2.9390     4.6920    35.7810 h1         1 QKH       0.067700
    159 H611        -3.0660     3.9720    33.3820 h1         1 QKH       0.059700
    160 H612        -4.2310     3.1920    34.4470 h1         1 QKH       0.059700
    161 HO61        -1.8250     2.0520    33.3580 ho         1 QKH       0.503000
    162 H11         -2.0670     2.3470    38.4850 h2         1 QKH       0.077700
    163 H31         -0.7740     5.5360    36.8380 h1         1 QKH       0.075700
    164 H841         2.2710     4.8030    38.0270 h1         1 QKH       0.036033
    165 H842         2.8330     6.0360    36.8970 h1         1 QKH       0.036033
    166 H843         1.3640     6.3340    37.8510 h1         1 QKH       0.036033
    167 H21          0.0540     2.6180    37.2830 h1         1 QKH       0.054700
    168 HO21         0.2430     3.1000    39.4440 ho         1 QKH       0.509000
@<TRIPOS>BOND
     1     1     2 1   
     2     1    85 1   
     3     2     3 1   
     4     2    86 1   
     5     2    87 1   
     6     3     4 1   
     7     3     6 1   
     8     3    88 1   
     9     4     5 1   
    10     4     9 1   
    11     4    89 1   
    12     5    79 1   
    13     6     7 1   
    14     7     8 1   
    15     7    14 1   
    16     7    90 1   
    17     8     9 1   
    18     8    12 1   
    19     8    91 1   
    20     9    10 1   
    21     9    92 1   
    22    10    11 1   
    23    11    93 1   
    24    11    94 1   
    25    11    95 1   
    26    12    13 1   
    27    13    96 1   
    28    13    97 1   
    29    13    98 1   
    30    14    15 1   
    31    15    16 1   
    32    15    21 1   
    33    15    99 1   
    34    16    17 1   
    35    16    18 1   
    36    16   100 1   
    37    17   101 1   
    38    18    19 1   
    39    18    25 1   
    40    18   102 1   
    41    19    20 1   
    42    20   103 1   
    43    20   104 1   
    44    20   105 1   
    45    21    22 1   
    46    21    24 1   
    47    21   106 1   
    48    22    23 1   
    49    22   107 1   
    50    22   108 1   
    51    23   109 1   
    52    24    25 1   
    53    25    26 1   
    54    25   110 1   
    55    26    27 1   
    56    27    28 1   
    57    27    33 1   
    58    27   111 1   
    59    28    29 1   
    60    28    30 1   
    61    28   112 1   
    62    29   113 1   
    63    30    31 1   
    64    30    38 1   
    65    30   114 1   
    66    31    32 1   
    67    32   115 1   
    68    32   116 1   
    69    32   117 1   
    70    33    34 1   
    71    33    37 1   
    72    33   118 1   
    73    34    35 1   
    74    34   119 1   
    75    34   120 1   
    76    35    36 1   
    77    36   121 1   
    78    36   122 1   
    79    36   123 1   
    80    37    38 1   
    81    38    39 1   
    82    38   124 1   
    83    39    40 1   
    84    40    41 1   
    85    40    46 1   
    86    40   125 1   
    87    41    42 1   
    88    41    43 1   
    89    41   126 1   
    90    42   127 1   
    91    43    44 1   
    92    43    50 1   
    93    43   128 1   
    94    44    45 1   
    95    45   129 1   
    96    45   130 1   
    97    45   131 1   
    98    46    47 1   
    99    46    49 1   
   100    46   132 1   
   101    47    48 1   
   102    47   133 1   
   103    47   134 1   
   104    48   135 1   
   105    49    50 1   
   106    50    51 1   
   107    50   136 1   
   108    51    52 1   
   109    52    53 1   
   110    52    57 1   
   111    52   137 1   
   112    53    54 1   
   113    53    55 1   
   114    53   138 1   
   115    54   139 1   
   116    55    56 1   
   117    55    61 1   
   118    55   140 1   
   119    56   141 1   
   120    57    58 1   
   121    57    60 1   
   122    57   142 1   
   123    58    59 1   
   124    58   143 1   
   125    58   144 1   
   126    59   145 1   
   127    60    61 1   
   128    61    62 1   
   129    61   146 1   
   130    62    63 1   
   131    63    64 1   
   132    63    68 1   
   133    63   147 1   
   134    64    65 1   
   135    64    66 1   
   136    64   148 1   
   137    65   149 1   
   138    66    67 1   
   139    66    72 1   
   140    66   150 1   
   141    67   151 1   
   142    68    69 1   
   143    68    71 1   
   144    68   152 1   
   145    69    70 1   
   146    69   153 1   
   147    69   154 1   
   148    70   155 1   
   149    71    72 1   
   150    72    73 1   
   151    72   156 1   
   152    73    74 1   
   153    74    75 1   
   154    74    80 1   
   155    74   157 1   
   156    75    76 1   
   157    75    78 1   
   158    75   158 1   
   159    76    77 1   
   160    76   159 1   
   161    76   160 1   
   162    77   161 1   
   163    78    79 1   
   164    79    83 1   
   165    79   162 1   
   166    80    81 1   
   167    80    83 1   
   168    80   163 1   
   169    81    82 1   
   170    82   164 1   
   171    82   165 1   
   172    82   166 1   
   173    83    84 1   
   174    83   167 1   
   175    84   168 1   
@<TRIPOS>SUBSTRUCTURE
     1 QKH         1 TEMP              0 ****  ****    0 ROOT
