@<TRIPOS>MOLECULE
QKI
   35    37     1     0     0
SMALL
abcg2


@<TRIPOS>ATOM
      1 N1         -16.6640     4.6190    26.3010 nb         1 QKI      -0.655000
      2 C4         -16.0860     5.6570    25.7410 ca         1 QKI       0.362900
      3 C5         -16.7620     6.8590    25.4170 ca         1 QKI      -0.093000
      4 C6         -16.1030     7.9500    24.8040 ca         1 QKI      -0.084000
      5 C7         -16.8010     9.0870    24.4920 ca         1 QKI      -0.107000
      6 C8         -18.1830     9.1740    24.7760 ca         1 QKI      -0.091000
      7 C10        -18.1510     6.9510    25.7130 ca         1 QKI      -0.003000
      8 C13        -22.7370     5.0300    31.4910 ca         1 QKI      -0.096000
      9 C15        -22.2750     3.1340    30.0810 ca         1 QKI       0.120000
     10 CL1        -22.0560     1.4240    29.8480 cl         1 QKI      -0.173000
     11 C14        -22.5700     3.6590    31.3390 ca         1 QKI       0.133000
     12 CL         -22.7440     2.6280    32.7280 cl         1 QKI      -0.171000
     13 C12        -22.6100     5.8710    30.3950 ca         1 QKI      -0.070000
     14 C16        -22.1450     3.9790    28.9880 ca         1 QKI      -0.082000
     15 C11        -22.3150     5.3520    29.1390 ca         1 QKI      -0.126300
     16 C          -22.1430     6.2700    27.9450 c3         1 QKI       0.136600
     17 O          -22.7260     5.7470    26.7590 oh         1 QKI      -0.671000
     18 C1         -20.6440     6.4910    27.7050 c          1 QKI       0.607100
     19 O1         -19.9950     7.2080    28.4560 o          1 QKI      -0.578100
     20 C2         -18.7470     5.8200    26.3280 ca         1 QKI      -0.080000
     21 C9         -18.8480     8.1320    25.3730 ca         1 QKI      -0.089000
     22 C3         -17.9860     4.7120    26.5940 ca         1 QKI       0.321900
     23 H1         -15.0260     5.5760    25.5160 h4         1 QKI       0.022100
     24 H2         -15.0450     7.8680    24.5860 ha         1 QKI       0.118000
     25 H3         -16.3000     9.9240    24.0220 ha         1 QKI       0.117000
     26 H4         -18.7220    10.0760    24.5160 ha         1 QKI       0.116000
     27 H5         -22.9710     5.4300    32.4680 ha         1 QKI       0.138000
     28 H6         -22.7490     6.9370    30.5210 ha         1 QKI       0.131000
     29 H7         -21.9140     3.5590    28.0190 ha         1 QKI       0.136000
     30 H8         -22.5600     7.2510    28.1860 h1         1 QKI       0.074700
     31 H9         -23.6330     5.4760    26.9510 ho         1 QKI       0.464000
     32 H10        -20.7630     5.2360    26.1260 hn         1 QKI       0.180000
     33 H11        -19.9050     8.2060    25.5850 ha         1 QKI       0.124000
     34 H12        -18.4420     3.8490    27.0650 h4         1 QKI       0.024100
     35 N          -20.1290     5.8160    26.6590 ns         1 QKI      -0.156000
@<TRIPOS>BOND
     1     1     2 ar  
     2     1    22 ar  
     3     2     3 ar  
     4     2    23 1   
     5     3     4 ar  
     6     3     7 ar  
     7     4     5 ar  
     8     4    24 1   
     9     5     6 ar  
    10     5    25 1   
    11     6    21 ar  
    12     6    26 1   
    13     7    20 ar  
    14     7    21 ar  
    15     8    11 ar  
    16     8    13 ar  
    17     8    27 1   
    18     9    10 1   
    19     9    11 ar  
    20     9    14 ar  
    21    11    12 1   
    22    13    15 ar  
    23    13    28 1   
    24    14    15 ar  
    25    14    29 1   
    26    15    16 1   
    27    16    17 1   
    28    16    18 1   
    29    16    30 1   
    30    17    31 1   
    31    18    19 2   
    32    18    35 1   
    33    20    22 ar  
    34    20    35 1   
    35    21    33 1   
    36    22    34 1   
    37    32    35 1   
@<TRIPOS>SUBSTRUCTURE
     1 QKI         1 TEMP              0 ****  ****    0 ROOT
