@<TRIPOS>MOLECULE
QKI
   35    37     1     0     0
SMALL
No Charge or Current Charge


@<TRIPOS>ATOM
      1 N1         -16.6710     4.4840    25.9220 nb         1 QKI      -0.655000
      2 C4         -16.0740     5.5920    25.4270 ca         1 QKI       0.362900
      3 C5         -16.7340     6.8290    25.2930 ca         1 QKI      -0.093000
      4 C6         -16.0600     7.9390    24.7470 ca         1 QKI      -0.084000
      5 C7         -16.7330     9.1620    24.5920 ca         1 QKI      -0.107000
      6 C8         -18.0790     9.2750    24.9740 ca         1 QKI      -0.091000
      7 C10        -18.0820     6.9400    25.7020 ca         1 QKI      -0.003000
      8 C13        -23.0460     5.0570    31.4830 ca         1 QKI      -0.096000
      9 C15        -22.1220     3.1690    30.2550 ca         1 QKI       0.120000
     10 Cl1        -21.6300     1.4760    30.1620 cl         1 QKI      -0.173000
     11 C14        -22.6650     3.7050    31.4400 ca         1 QKI       0.133000
     12 Cl         -22.8760     2.7080    32.8800 cl         1 QKI      -0.171000
     13 C12        -22.8880     5.8740    30.3500 ca         1 QKI      -0.070000
     14 C16        -21.9640     3.9870    29.1220 ca         1 QKI      -0.082000
     15 C11        -22.3460     5.3450    29.1600 ca         1 QKI      -0.126300
     16 C          -22.1670     6.2410    27.9340 c3         1 QKI       0.136600
     17 O          -22.8170     5.6260    26.7930 oh         1 QKI      -0.671000
     18 C1         -20.6580     6.5620    27.6860 c          1 QKI       0.607100
     19 O1         -20.0570     7.4300    28.3150 o          1 QKI      -0.578100
     20 C2         -18.7040     5.7890    26.2490 ca         1 QKI      -0.080000
     21 C9         -18.7550     8.1700    25.5230 ca         1 QKI      -0.089000
     22 C3         -17.9600     4.5920    26.3160 ca         1 QKI       0.321900
     23 H1         -15.0350     5.4780    25.1170 h4         1 QKI       0.022100
     24 H2         -15.0210     7.8540    24.4370 ha         1 QKI       0.118000
     25 H3         -16.2140    10.0190    24.1680 ha         1 QKI       0.117000
     26 H4         -18.6030    10.2190    24.8430 ha         1 QKI       0.116000
     27 H5         -23.4640     5.4710    32.3970 ha         1 QKI       0.138000
     28 H6         -23.1850     6.9200    30.4020 ha         1 QKI       0.131000
     29 H7         -21.5470     3.5580    28.2140 ha         1 QKI       0.136000
     30 H8         -22.6400     7.2110    28.1370 h1         1 QKI       0.074700
     31 H9         -23.7530     5.4620    27.0500 ho         1 QKI       0.464000
     32 H10        -20.6460     5.0730    26.3090 hn         1 QKI       0.180000
     33 H11        -19.8000     8.2840    25.7900 ha         1 QKI       0.124000
     34 H12        -18.4110     3.6850    26.7200 h4         1 QKI       0.024100
     35 N          -20.0440     5.7730    26.7250 ns         1 QKI      -0.156000
@<TRIPOS>BOND
     1     1     2 ar  
     2     1    22 ar  
     3     2     3 ar  
     4     2    23 1   
     5     3     4 ar  
     6     3     7 ar  
     7     4     5 ar  
     8     4    24 1   
     9     5     6 ar  
    10     5    25 1   
    11     6    21 ar  
    12     6    26 1   
    13     7    20 ar  
    14     7    21 ar  
    15     8    11 ar  
    16     8    13 ar  
    17     8    27 1   
    18     9    10 1   
    19     9    11 ar  
    20     9    14 ar  
    21    11    12 1   
    22    13    15 ar  
    23    13    28 1   
    24    14    15 ar  
    25    14    29 1   
    26    15    16 1   
    27    16    17 1   
    28    16    18 1   
    29    16    30 1   
    30    17    31 1   
    31    18    19 2   
    32    18    35 1   
    33    20    22 ar  
    34    20    35 1   
    35    21    33 1   
    36    22    34 1   
    37    32    35 1   
@<TRIPOS>SUBSTRUCTURE
     1 QKI         1 TEMP              0 ****  ****    0 ROOT
