@<TRIPOS>MOLECULE
QKJ
   49    50     1     0     0
SMALL
No Charge or Current Charge


@<TRIPOS>ATOM
      1 C11         -9.4170     7.0330    15.6270 ca         1 QKJ      -0.175000
      2 C12        -10.0340     8.2940    15.6520 ca         1 QKJ      -0.085000
      3 C15         -6.9940    10.6320    15.5480 c3         1 QKJ      -0.026100
      4 C16         -6.5310    11.0600    16.9600 c3         1 QKJ      -0.204400
      5 C01         -8.2310     6.4880    12.0440 c3         1 QKJ      -0.079100
      6 C03         -6.6990     4.8710    10.8040 ca         1 QKJ       0.185300
      7 C04         -6.1550     3.8030    11.5550 ca         1 QKJ      -0.121900
      8 C06         -6.3860     3.3580    13.9510 c3         1 QKJ       0.153600
      9 C07         -5.8100     3.9320    15.2620 c3         1 QKJ      -0.076400
     10 C08         -6.0510     5.4460    15.4360 c3         1 QKJ       0.168600
     11 C10         -8.0180     6.9280    15.5770 ca         1 QKJ       0.132100
     12 C13         -9.2490     9.4570    15.6260 ca         1 QKJ      -0.153000
     13 C14         -7.8450     9.3680    15.5750 ca         1 QKJ      -0.008300
     14 C17         -5.6860    12.3410    16.8710 c          1 QKJ       0.719000
     15 C20         -7.2310     8.1000    15.5520 ca         1 QKJ      -0.198000
     16 C21         -6.0660     2.5500    10.9020 ca         1 QKJ       0.394900
     17 C24         -6.9970     3.4460     9.0420 ca         1 QKJ       0.396900
     18 N22         -5.5040     1.4490    11.4720 nv         1 QKJ      -1.065900
     19 N23         -6.4860     2.3680     9.6450 nb         1 QKJ      -0.330000
     20 N25         -7.4230     3.2640     7.7720 nv         1 QKJ      -1.050900
     21 N26         -7.1260     4.6840     9.5380 nb         1 QKJ      -0.279000
     22 O05         -5.7190     4.0070    12.8530 os         1 QKJ      -0.348100
     23 O09         -7.4690     5.6640    15.5370 os         1 QKJ      -0.367100
     24 O18         -6.2620    13.4170    16.9220 o          1 QKJ      -0.738500
     25 O19         -4.4810    12.2260    16.7010 o          1 QKJ      -0.738500
     26 H1         -10.0250     6.1320    15.6420 ha         1 QKJ       0.107000
     27 H2         -11.1190     8.3690    15.6910 ha         1 QKJ       0.097000
     28 H3          -6.1140    10.4760    14.9110 hc         1 QKJ       0.051700
     29 H4          -7.5580    11.4540    15.0880 hc         1 QKJ       0.051700
     30 H5          -7.4490    11.2430    17.5330 hc         1 QKJ       0.020200
     31 H6          -5.9290    10.2270    17.3440 hc         1 QKJ       0.020200
     32 H7          -8.2960     7.4910    12.4820 hc         1 QKJ       0.036367
     33 H8          -9.0400     6.3790    11.3120 hc         1 QKJ       0.036367
     34 H9          -8.3900     5.7530    12.8420 hc         1 QKJ       0.036367
     35 H10         -6.0700     6.4810    12.1090 hc         1 QKJ       0.070200
     36 H11         -6.7310     7.0240    10.5830 hc         1 QKJ       0.070200
     37 H12         -7.4670     3.5430    13.9100 h1         1 QKJ       0.036200
     38 H13         -6.2250     2.2730    13.9280 h1         1 QKJ       0.036200
     39 H14         -6.2520     3.3990    16.1120 hc         1 QKJ       0.052200
     40 H15         -4.7320     3.7360    15.2950 hc         1 QKJ       0.052200
     41 H16         -5.5420     5.7960    16.3440 h1         1 QKJ       0.044700
     42 H17         -5.6310     5.9830    14.5750 h1         1 QKJ       0.044700
     43 H18         -9.7320    10.4310    15.6480 ha         1 QKJ       0.115000
     44 H19         -6.1470     8.0470    15.5160 ha         1 QKJ       0.120000
     45 H20         -5.2580     0.6740    10.8610 hn         1 QKJ       0.488000
     46 H21         -4.9120     1.5910    12.2850 hn         1 QKJ       0.488000
     47 H22         -7.6100     4.0850     7.2020 hn         1 QKJ       0.479000
     48 H23         -7.1490     2.4150     7.2840 hn         1 QKJ       0.479000
     49 C02         -6.8580     6.2760    11.3760 c3         1 QKJ      -0.135700
@<TRIPOS>BOND
     1     1     2 ar  
     2     1    11 ar  
     3     1    26 1   
     4     2    12 ar  
     5     2    27 1   
     6     3     4 1   
     7     3    13 1   
     8     3    28 1   
     9     3    29 1   
    10     4    14 1   
    11     4    30 1   
    12     4    31 1   
    13     5    32 1   
    14     5    33 1   
    15     5    34 1   
    16     5    49 1   
    17     6     7 ar  
    18     6    21 ar  
    19     6    49 1   
    20     7    16 ar  
    21     7    22 1   
    22     8     9 1   
    23     8    22 1   
    24     8    37 1   
    25     8    38 1   
    26     9    10 1   
    27     9    39 1   
    28     9    40 1   
    29    10    23 1   
    30    10    41 1   
    31    10    42 1   
    32    11    15 ar  
    33    11    23 1   
    34    12    13 ar  
    35    12    43 1   
    36    13    15 ar  
    37    14    24 1   
    38    14    25 1   
    39    15    44 1   
    40    16    18 1   
    41    16    19 ar  
    42    17    19 ar  
    43    17    20 1   
    44    17    21 ar  
    45    18    45 1   
    46    18    46 1   
    47    20    47 1   
    48    20    48 1   
    49    35    49 1   
    50    36    49 1   
@<TRIPOS>SUBSTRUCTURE
     1 QKJ         1 TEMP              0 ****  ****    0 ROOT
