@<TRIPOS>MOLECULE
QKJ
   49    50     1     0     0
SMALL
bcc


@<TRIPOS>ATOM
      1 C11         -9.2340     7.4760    15.1010 ca         1 QKJ      -0.193000
      2 C12         -9.6930     8.7800    15.0690 ca         1 QKJ      -0.103000
      3 C15         -6.5050    10.7450    15.6810 c3         1 QKJ      -0.026100
      4 C16         -6.2820    10.9880    17.1710 c3         1 QKJ      -0.204400
      5 C01         -9.4250     5.3800    11.8310 c3         1 QKJ      -0.079100
      6 C03         -7.2080     4.5950    10.9440 ca         1 QKJ       0.513600
      7 C04         -6.1960     3.9270    11.6000 ca         1 QKJ      -0.252500
      8 C06         -6.4900     3.5920    13.9040 c3         1 QKJ       0.130400
      9 C07         -5.9850     4.1070    15.2360 c3         1 QKJ      -0.076400
     10 C08         -6.1290     5.6050    15.4190 c3         1 QKJ       0.145400
     11 C10         -7.8750     7.2280    15.3050 ca         1 QKJ       0.132100
     12 C13         -8.8170     9.8470    15.2360 ca         1 QKJ      -0.171000
     13 C14         -7.4630     9.6110    15.4410 ca         1 QKJ      -0.008300
     14 C17         -5.2850    12.1120    17.5210 c          1 QKJ       0.929600
     15 C20         -6.9980     8.2950    15.4750 ca         1 QKJ      -0.216000
     16 C21         -5.5570     2.8780    10.9020 ca         1 QKJ       0.723200
     17 C24         -6.9290     3.2480     9.1340 ca         1 QKJ       0.922900
     18 N22         -4.5640     2.1710    11.4760 nv         1 QKJ      -0.955500
     19 N23         -5.9290     2.5480     9.6720 nb         1 QKJ      -0.856000
     20 N25         -7.3370     2.8670     7.8950 nv         1 QKJ      -0.940500
     21 N26         -7.5780     4.2580     9.7020 nb         1 QKJ      -0.805000
     22 O05         -5.7760     4.2500    12.8590 os         1 QKJ      -0.324900
     23 O09         -7.5030     5.9320    15.3190 os         1 QKJ      -0.343900
     24 O18         -5.1210    12.3250    18.7400 o          1 QKJ      -0.843800
     25 O19         -4.7280    12.7060    16.5770 o          1 QKJ      -0.843800
     26 H1          -9.9150     6.6440    14.9660 ha         1 QKJ       0.125000
     27 H2         -10.7470     8.9660    14.9070 ha         1 QKJ       0.115000
     28 H3          -5.5490    10.5280    15.1990 hc         1 QKJ       0.051700
     29 H4          -6.8900    11.6540    15.2130 hc         1 QKJ       0.051700
     30 H5          -7.2410    11.2090    17.6520 hc         1 QKJ       0.020200
     31 H6          -5.9350    10.0620    17.6440 hc         1 QKJ       0.020200
     32 H7          -9.9480     6.2280    12.2720 hc         1 QKJ       0.036367
     33 H8          -9.9340     5.1150    10.9050 hc         1 QKJ       0.036367
     34 H9          -9.5170     4.5390    12.5180 hc         1 QKJ       0.036367
     35 H10         -7.4850     6.0350    12.5050 hc         1 QKJ       0.070200
     36 H11         -7.9090     6.5870    10.8980 hc         1 QKJ       0.070200
     37 H12         -7.5640     3.7760    13.7980 h1         1 QKJ       0.036200
     38 H13         -6.3380     2.5090    13.8450 h1         1 QKJ       0.036200
     39 H14         -6.5210     3.5800    16.0290 hc         1 QKJ       0.052200
     40 H15         -4.9290     3.8540    15.3560 hc         1 QKJ       0.052200
     41 H16         -5.7340     5.8970    16.3990 h1         1 QKJ       0.044700
     42 H17         -5.5480     6.1390    14.6610 h1         1 QKJ       0.044700
     43 H18         -9.1880    10.8650    15.2060 ha         1 QKJ       0.133000
     44 H19         -5.9410     8.1290    15.6400 ha         1 QKJ       0.138000
     45 H20         -4.0190     1.5630    10.8880 hn         1 QKJ       0.432800
     46 H21         -4.0970     2.5410    12.2870 hn         1 QKJ       0.432800
     47 H22         -7.8890     3.5260     7.3730 hn         1 QKJ       0.423800
     48 H23         -6.7000     2.3110     7.3510 hn         1 QKJ       0.423800
     49 C02         -7.9600     5.7310    11.5750 c3         1 QKJ      -0.135700
@<TRIPOS>BOND
     1     1     2 ar  
     2     1    11 ar  
     3     1    26 1   
     4     2    12 ar  
     5     2    27 1   
     6     3     4 1   
     7     3    13 1   
     8     3    28 1   
     9     3    29 1   
    10     4    14 1   
    11     4    30 1   
    12     4    31 1   
    13     5    32 1   
    14     5    33 1   
    15     5    34 1   
    16     5    49 1   
    17     6     7 ar  
    18     6    21 ar  
    19     6    49 1   
    20     7    16 ar  
    21     7    22 1   
    22     8     9 1   
    23     8    22 1   
    24     8    37 1   
    25     8    38 1   
    26     9    10 1   
    27     9    39 1   
    28     9    40 1   
    29    10    23 1   
    30    10    41 1   
    31    10    42 1   
    32    11    15 ar  
    33    11    23 1   
    34    12    13 ar  
    35    12    43 1   
    36    13    15 ar  
    37    14    24 1   
    38    14    25 1   
    39    15    44 1   
    40    16    18 1   
    41    16    19 ar  
    42    17    19 ar  
    43    17    20 1   
    44    17    21 ar  
    45    18    45 1   
    46    18    46 1   
    47    20    47 1   
    48    20    48 1   
    49    35    49 1   
    50    36    49 1   
@<TRIPOS>SUBSTRUCTURE
     1 QKJ         1 TEMP              0 ****  ****    0 ROOT
