@<TRIPOS>MOLECULE
QKK
   38    39     1     0     0
SMALL
No Charge or Current Charge


@<TRIPOS>ATOM
      1 C           -3.4280   -30.3120     6.9050 c2         1 QKK       0.784100
      2 N           -2.4960   -31.2340     6.9190 nv         1 QKK      -1.025200
      3 O           -0.4320   -29.3640     6.1000 o          1 QKK      -0.637100
      4 O4          -7.5710   -23.5380     3.9080 o          1 QKK      -0.619300
      5 O3          -6.1060   -21.9220     3.7190 oh         1 QKK      -0.663100
      6 C9          -6.0040   -23.3070     5.5770 cc         1 QKK      -0.249000
      7 N5          -6.4590   -24.3540     6.3680 nc         1 QKK      -0.462300
      8 C10         -5.7280   -24.4430     7.4800 cd         1 QKK       0.286100
      9 S1          -4.4390   -23.2500     7.6880 ss         1 QKK      -0.184400
     10 C8          -4.8760   -22.6380     6.1270 cc         1 QKK       0.564500
     11 N4          -4.3070   -21.6200     5.5700 nf         1 QKK      -0.933300
     12 O1          -2.6110   -21.1530     3.8530 o          1 QKK      -0.575500
     13 O2          -2.1580   -20.6060     6.3100 o          1 QKK      -0.575500
     14 C5          -2.0530   -23.1430     5.5010 ca         1 QKK      -0.197500
     15 C4          -1.2400   -23.4550     6.6130 ca         1 QKK      -0.070500
     16 C3          -0.7410   -24.7570     6.7790 ca         1 QKK       0.164500
     17 F            0.0330   -25.0320     7.8530 f          1 QKK      -0.170000
     18 C6          -2.3360   -24.1490     4.5530 ca         1 QKK      -0.070500
     19 C7          -1.8340   -25.4500     4.7260 ca         1 QKK       0.164500
     20 F1          -2.0870   -26.3750     3.7730 f          1 QKK      -0.170000
     21 C2          -1.0480   -25.7760     5.8550 ca         1 QKK      -0.140000
     22 N3          -0.5050   -27.0800     6.0580 ns         1 QKK      -0.172000
     23 C1          -1.0870   -28.3340     5.9930 c          1 QKK       0.654100
     24 N2          -2.4720   -28.3460     5.8380 ns         1 QKK      -0.369300
     25 N1          -3.2840   -29.5630     5.7940 nu         1 QKK      -0.678400
     26 N6          -4.0340   -29.8930     7.9090 n2         1 QKK      -0.876100
     27 H1          -1.6370   -30.8140     6.5740 hn         1 QKK       0.461000
     28 H2          -2.3940   -31.6110     7.8500 hn         1 QKK       0.461000
     29 H4          -5.8900   -25.1820     8.2550 h5         1 QKK       0.038800
     30 H5          -5.3730   -21.6320     4.3320 ho         1 QKK       0.531000
     31 H6          -0.9970   -22.6980     7.3550 ha         1 QKK       0.164000
     32 H7          -2.9400   -23.9260     3.6750 ha         1 QKK       0.164000
     33 H8           0.4810   -27.0960     6.2830 hn         1 QKK       0.179000
     34 H9          -4.5090   -29.0390     7.5950 hn         1 QKK       0.396400
     35 H10         -2.9370   -27.4430     5.7580 hn         1 QKK       0.364500
     36 H11         -3.1100   -30.1210     4.9570 hn         1 QKK       0.482000
     37 S           -2.7240   -21.4780     5.2770 sy         1 QKK       1.206100
     38 C11         -6.5980   -22.9590     4.3870 c2         1 QKK       0.771400
@<TRIPOS>BOND
     1     1     2 1   
     2     1    25 1   
     3     1    26 2   
     4     2    27 1   
     5     2    28 1   
     6     3    23 2   
     7     4    38 1   
     8     5    30 1   
     9     5    38 1   
    10     6     7 1   
    11     6    10 1   
    12     6    38 2   
    13     7     8 2   
    14     8     9 1   
    15     8    29 1   
    16     9    10 1   
    17    10    11 2   
    18    11    37 1   
    19    12    37 2   
    20    13    37 2   
    21    14    15 ar  
    22    14    18 ar  
    23    14    37 1   
    24    15    16 ar  
    25    15    31 1   
    26    16    17 1   
    27    16    21 ar  
    28    18    19 ar  
    29    18    32 1   
    30    19    20 1   
    31    19    21 ar  
    32    21    22 1   
    33    22    23 1   
    34    22    33 1   
    35    23    24 1   
    36    24    25 1   
    37    24    35 1   
    38    25    36 1   
    39    26    34 1   
@<TRIPOS>SUBSTRUCTURE
     1 QKK         1 TEMP              0 ****  ****    0 ROOT
