@<TRIPOS>MOLECULE
QKK
   38    39     1     0     0
SMALL
abcg2


@<TRIPOS>ATOM
      1 C           -2.9820   -30.3230     6.5850 c2         1 QKK       0.784100
      2 N           -3.2690   -31.6180     6.2420 nv         1 QKK      -1.025200
      3 O           -0.1070   -29.3510     6.0630 o          1 QKK      -0.637100
      4 O4          -8.0780   -23.8980     4.6840 o          1 QKK      -0.619300
      5 O3          -6.2240   -23.3020     3.6540 oh         1 QKK      -0.663100
      6 C9          -6.3900   -22.8860     5.9880 cc         1 QKK      -0.249000
      7 N5          -7.0960   -22.9630     7.1580 nc         1 QKK      -0.462300
      8 C10         -6.4320   -22.4760     8.1410 cd         1 QKK       0.286100
      9 S1          -4.8620   -21.8480     7.7440 ss         1 QKK      -0.184400
     10 C8          -5.1300   -22.3090     6.0810 cc         1 QKK       0.564500
     11 N4          -4.3120   -22.1280     5.0270 nf         1 QKK      -0.933300
     12 O1          -2.2710   -21.3040     3.9210 o          1 QKK      -0.575500
     13 O2          -2.5080   -20.9800     6.3960 o          1 QKK      -0.575500
     14 C5          -1.9810   -23.3680     5.4950 ca         1 QKK      -0.197500
     15 C4          -1.7310   -23.7690     6.7980 ca         1 QKK      -0.070500
     16 C3          -1.1790   -25.0200     6.9940 ca         1 QKK       0.164500
     17 F           -0.9350   -25.4350     8.2340 f          1 QKK      -0.170000
     18 C6          -1.6850   -24.1780     4.4070 ca         1 QKK      -0.070500
     19 C7          -1.1110   -25.4050     4.6570 ca         1 QKK       0.164500
     20 F1          -0.7900   -26.1980     3.6370 f          1 QKK      -0.170000
     21 C2          -0.8440   -25.8650     5.9440 ca         1 QKK      -0.140000
     22 N3          -0.2150   -27.0950     6.1690 ns         1 QKK      -0.172000
     23 C1          -0.7630   -28.3320     5.9690 c          1 QKK       0.654100
     24 N2          -2.0960   -28.3370     5.6580 ns         1 QKK      -0.369300
     25 N1          -2.7470   -29.5160     5.4750 nu         1 QKK      -0.678400
     26 N6          -3.0410   -29.9270     7.7950 n2         1 QKK      -0.876100
     27 H1          -2.7530   -32.0190     5.4740 hn         1 QKK       0.461000
     28 H2          -3.3360   -32.2410     7.0300 hn         1 QKK       0.461000
     29 H4          -6.7890   -22.4410     9.1610 h5         1 QKK       0.038800
     30 H5          -5.3550   -22.8760     3.8700 ho         1 QKK       0.531000
     31 H6          -1.9450   -23.1350     7.6460 ha         1 QKK       0.164000
     32 H7          -1.8720   -23.8620     3.3890 ha         1 QKK       0.164000
     33 H8           0.7490   -27.0890     6.4710 hn         1 QKK       0.179000
     34 H9          -2.9050   -28.9260     7.8630 hn         1 QKK       0.396400
     35 H10         -2.6690   -27.5080     5.7020 hn         1 QKK       0.364500
     36 H11         -2.5380   -29.9760     4.6000 hn         1 QKK       0.482000
     37 S           -2.7630   -21.7850     5.2020 sy         1 QKK       1.206100
     38 C11         -6.9750   -23.4020     4.7450 c2         1 QKK       0.771400
@<TRIPOS>BOND
     1     1     2 1   
     2     1    25 1   
     3     1    26 2   
     4     2    27 1   
     5     2    28 1   
     6     3    23 2   
     7     4    38 1   
     8     5    30 1   
     9     5    38 1   
    10     6     7 1   
    11     6    10 1   
    12     6    38 2   
    13     7     8 2   
    14     8     9 1   
    15     8    29 1   
    16     9    10 1   
    17    10    11 2   
    18    11    37 1   
    19    12    37 2   
    20    13    37 2   
    21    14    15 ar  
    22    14    18 ar  
    23    14    37 1   
    24    15    16 ar  
    25    15    31 1   
    26    16    17 1   
    27    16    21 ar  
    28    18    19 ar  
    29    18    32 1   
    30    19    20 1   
    31    19    21 ar  
    32    21    22 1   
    33    22    23 1   
    34    22    33 1   
    35    23    24 1   
    36    24    25 1   
    37    24    35 1   
    38    25    36 1   
    39    26    34 1   
@<TRIPOS>SUBSTRUCTURE
     1 QKK         1 TEMP              0 ****  ****    0 ROOT
