@<TRIPOS>MOLECULE
QKL
   48    51     1     0     0
SMALL
abcg2


@<TRIPOS>ATOM
      1 C18        -53.6390   -29.8040    11.2430 cx         1 QKL      -0.136900
      2 C17        -53.5240   -29.3740     9.8120 cx         1 QKL       0.066700
      3 C15        -51.8610   -29.2530     8.0310 c          1 QKL       0.662100
      4 C13        -49.8610   -28.9960     6.5500 ca         1 QKL      -0.001000
      5 C12        -48.5070   -28.6250     6.5630 ca         1 QKL      -0.171000
      6 C11        -47.7260   -28.7480     5.4300 ca         1 QKL      -0.042000
      7 C10        -48.2610   -29.2490     4.2370 ca         1 QKL      -0.158600
      8 C19        -53.8580   -30.8030    10.1380 cx         1 QKL      -0.136900
      9 C03        -43.8990   -29.5570     2.2170 c5         1 QKL      -0.191700
     10 C04        -42.9860   -28.9390     1.1270 c5         1 QKL      -0.020100
     11 C05        -43.7490   -27.7130     0.6860 ca         1 QKL      -0.070300
     12 C06        -45.0790   -27.7950     1.0960 ca         1 QKL      -0.101300
     13 C07        -45.3180   -29.0960     1.8300 c5         1 QKL       0.151000
     14 C09        -47.4760   -29.4540     2.9820 c          1 QKL       0.612700
     15 C21        -50.4100   -29.4810     5.3560 ca         1 QKL      -0.171000
     16 C22        -49.6100   -29.6040     4.2310 ca         1 QKL      -0.042000
     17 C24        -45.9810   -26.7830     0.8030 ca         1 QKL      -0.097000
     18 C25        -45.5380   -25.6740     0.0840 ca         1 QKL      -0.135000
     19 C26        -44.2090   -25.5890    -0.3310 ca         1 QKL      -0.127000
     20 C27        -43.3060   -26.6100    -0.0330 ca         1 QKL      -0.116000
     21 N08        -46.2060   -28.9940     2.9700 ns         1 QKL      -0.468900
     22 N14        -50.5660   -28.8570     7.7430 ns         1 QKL      -0.163000
     23 N16        -52.2120   -29.0630     9.3330 ns         1 QKL      -0.510900
     24 O20        -52.6270   -29.7370     7.2010 o          1 QKL      -0.615100
     25 O23        -47.9750   -30.0310     2.0090 o          1 QKL      -0.611100
     26 H181       -52.7220   -29.8750    11.8130 hc         1 QKL       0.077450
     27 H182       -54.4970   -29.4550    11.8000 hc         1 QKL       0.077450
     28 H171       -54.3190   -28.7590     9.4060 h1         1 QKL       0.086700
     29 H121       -48.0680   -28.2470     7.4780 ha         1 QKL       0.124000
     30 H111       -46.6870   -28.4570     5.5070 ha         1 QKL       0.129000
     31 H191       -53.0800   -31.5350     9.9620 hc         1 QKL       0.077450
     32 H192       -54.8660   -31.1430     9.9410 hc         1 QKL       0.077450
     33 H031       -43.6420   -29.0910     3.1720 hc         1 QKL       0.033700
     34 H042       -41.9880   -28.7100     1.5010 hc         1 QKL       0.056700
     35 H041       -42.8700   -29.6330     0.2870 hc         1 QKL       0.056700
     36 H071       -45.7620   -29.8270     1.1550 h1         1 QKL       0.129700
     37 H211       -51.4470   -29.7650     5.3210 ha         1 QKL       0.124000
     38 H221       -50.0390   -29.9890     3.3160 ha         1 QKL       0.129000
     39 H241       -47.0110   -26.8480     1.1360 ha         1 QKL       0.111000
     40 H251       -46.2260   -24.8710    -0.1480 ha         1 QKL       0.094000
     41 H261       -43.8740   -24.7200    -0.8840 ha         1 QKL       0.092000
     42 H271       -42.2730   -26.5350    -0.3500 ha         1 QKL       0.103000
     43 H081       -45.8710   -28.4550     3.7520 hn         1 QKL       0.297500
     44 H141       -50.0200   -28.5030     8.5150 hn         1 QKL       0.139000
     45 H161       -51.5940   -28.5620     9.9510 hn         1 QKL       0.311500
     46 C02        -43.7160   -31.0790     2.3560 c          1 QKL       0.714000
     47 O01        -42.8530   -31.4630     3.1890 o          1 QKL      -0.725000
     48 O28        -44.4050   -31.8200     1.6090 o          1 QKL      -0.725000
@<TRIPOS>BOND
     1     1     2 1   
     2     1     8 1   
     3     1    26 1   
     4     1    27 1   
     5     2     8 1   
     6     2    23 1   
     7     2    28 1   
     8     3    22 1   
     9     3    23 1   
    10     3    24 2   
    11     4     5 ar  
    12     4    15 ar  
    13     4    22 1   
    14     5     6 ar  
    15     5    29 1   
    16     6     7 ar  
    17     6    30 1   
    18     7    14 1   
    19     7    16 ar  
    20     8    31 1   
    21     8    32 1   
    22     9    10 1   
    23     9    13 1   
    24     9    33 1   
    25     9    46 1   
    26    10    11 1   
    27    10    34 1   
    28    10    35 1   
    29    11    12 ar  
    30    11    20 ar  
    31    12    13 1   
    32    12    17 ar  
    33    13    21 1   
    34    13    36 1   
    35    14    21 1   
    36    14    25 2   
    37    15    16 ar  
    38    15    37 1   
    39    16    38 1   
    40    17    18 ar  
    41    17    39 1   
    42    18    19 ar  
    43    18    40 1   
    44    19    20 ar  
    45    19    41 1   
    46    20    42 1   
    47    21    43 1   
    48    22    44 1   
    49    23    45 1   
    50    46    47 1   
    51    46    48 1   
@<TRIPOS>SUBSTRUCTURE
     1 QKL         1 TEMP              0 ****  ****    0 ROOT
