@<TRIPOS>MOLECULE
QKL
   48    51     1     0     0
SMALL
No Charge or Current Charge


@<TRIPOS>ATOM
      1 C18        -53.6140   -29.3330    11.3890 cx         1 QKL      -0.136900
      2 C17        -53.5380   -29.3880     9.8830 cx         1 QKL       0.066700
      3 C15        -51.9740   -29.4260     7.9490 c          1 QKL       0.662100
      4 C13        -49.9250   -29.2370     6.4120 ca         1 QKL      -0.001000
      5 C12        -48.5750   -28.8470     6.4320 ca         1 QKL      -0.171000
      6 C11        -47.7830   -28.9120     5.2720 ca         1 QKL      -0.042000
      7 C10        -48.3330   -29.3750     4.0530 ca         1 QKL      -0.158600
      8 C19        -53.7390   -30.6570    10.6750 cx         1 QKL      -0.136900
      9 C03        -43.9330   -29.5000     2.2150 c5         1 QKL      -0.191700
     10 C04        -42.9020   -28.8430     1.2120 c5         1 QKL      -0.020100
     11 C05        -43.6900   -27.6300     0.7900 ca         1 QKL      -0.070300
     12 C06        -45.0410   -27.7740     1.0400 ca         1 QKL      -0.101300
     13 C07        -45.3610   -29.1100     1.6630 c5         1 QKL       0.151000
     14 C09        -47.5180   -29.4620     2.7770 c          1 QKL       0.612700
     15 C21        -50.4760   -29.6990     5.2000 ca         1 QKL      -0.171000
     16 C22        -49.6900   -29.7670     4.0370 ca         1 QKL      -0.042000
     17 C24        -45.9500   -26.7570     0.7040 ca         1 QKL      -0.097000
     18 C25        -45.4610   -25.5760     0.1120 ca         1 QKL      -0.135000
     19 C26        -44.0810   -25.4280    -0.1410 ca         1 QKL      -0.127000
     20 C27        -43.1860   -26.4620     0.1970 ca         1 QKL      -0.116000
     21 N08        -46.2000   -29.0550     2.8640 ns         1 QKL      -0.468900
     22 N14        -50.6560   -29.1400     7.6270 ns         1 QKL      -0.163000
     23 N16        -52.2530   -29.1800     9.2740 ns         1 QKL      -0.510900
     24 O20        -52.8200   -29.8470     7.1720 o          1 QKL      -0.615100
     25 O23        -48.0070   -29.8680     1.7290 o          1 QKL      -0.611100
     26 H181       -52.6990   -29.1410    11.9440 hc         1 QKL       0.077450
     27 H182       -54.5120   -28.9090    11.8320 hc         1 QKL       0.077450
     28 H171       -54.3810   -28.9960     9.3120 h1         1 QKL       0.086700
     29 H121       -48.1290   -28.4870     7.3570 ha         1 QKL       0.124000
     30 H111       -46.7450   -28.5980     5.3430 ha         1 QKL       0.129000
     31 H191       -52.9060   -31.3530    10.7440 hc         1 QKL       0.077450
     32 H192       -54.7200   -31.1230    10.6360 hc         1 QKL       0.077450
     33 H031       -43.7610   -29.0860     3.2170 hc         1 QKL       0.033700
     34 H042       -41.9510   -28.5950     1.6970 hc         1 QKL       0.056700
     35 H041       -42.6800   -29.4860     0.3520 hc         1 QKL       0.056700
     36 H071       -45.7090   -29.8170     0.8940 h1         1 QKL       0.129700
     37 H211       -51.5130   -30.0130     5.1350 ha         1 QKL       0.124000
     38 H221       -50.1450   -30.1290     3.1170 ha         1 QKL       0.129000
     39 H241       -47.0130   -26.8790     0.8980 ha         1 QKL       0.111000
     40 H251       -46.1500   -24.7770    -0.1520 ha         1 QKL       0.094000
     41 H261       -43.7080   -24.5160    -0.6000 ha         1 QKL       0.092000
     42 H271       -42.1210   -26.3560     0.0010 ha         1 QKL       0.103000
     43 H081       -45.8690   -28.7210     3.7570 hn         1 QKL       0.297500
     44 H141       -50.1050   -28.7990     8.4030 hn         1 QKL       0.139000
     45 H161       -51.4910   -28.8270     9.8390 hn         1 QKL       0.311500
     46 C02        -43.7730   -31.0370     2.2610 c          1 QKL       0.714000
     47 O01        -43.4810   -31.5620     3.3250 o          1 QKL      -0.725000
     48 O28        -43.9410   -31.6930     1.2430 o          1 QKL      -0.725000
@<TRIPOS>BOND
     1     1     2 1   
     2     1     8 1   
     3     1    26 1   
     4     1    27 1   
     5     2     8 1   
     6     2    23 1   
     7     2    28 1   
     8     3    22 1   
     9     3    23 1   
    10     3    24 2   
    11     4     5 ar  
    12     4    15 ar  
    13     4    22 1   
    14     5     6 ar  
    15     5    29 1   
    16     6     7 ar  
    17     6    30 1   
    18     7    14 1   
    19     7    16 ar  
    20     8    31 1   
    21     8    32 1   
    22     9    10 1   
    23     9    13 1   
    24     9    33 1   
    25     9    46 1   
    26    10    11 1   
    27    10    34 1   
    28    10    35 1   
    29    11    12 ar  
    30    11    20 ar  
    31    12    13 1   
    32    12    17 ar  
    33    13    21 1   
    34    13    36 1   
    35    14    21 1   
    36    14    25 2   
    37    15    16 ar  
    38    15    37 1   
    39    16    38 1   
    40    17    18 ar  
    41    17    39 1   
    42    18    19 ar  
    43    18    40 1   
    44    19    20 ar  
    45    19    41 1   
    46    20    42 1   
    47    21    43 1   
    48    22    44 1   
    49    23    45 1   
    50    46    47 1   
    51    46    48 1   
@<TRIPOS>SUBSTRUCTURE
     1 QKL         1 TEMP              0 ****  ****    0 ROOT
