@<TRIPOS>MOLECULE
QKM
   48    51     1     0     0
SMALL
abcg2


@<TRIPOS>ATOM
      1 CD1        -20.1000    25.8170   -19.6270 c3         1 QKM      -0.083100
      2 CE1        -19.3130    26.2150   -18.3760 c3         1 QKM      -0.083000
      3 C3         -17.8420    26.0360   -18.5970 cc         1 QKM       0.418700
      4 N          -17.1200    25.1870   -17.9420 nd         1 QKM      -0.644000
      5 CA         -15.8170    25.1800   -18.3630 cd         1 QKM       0.334500
      6 C          -15.5510    26.0540   -19.3770 cc         1 QKM      -0.274000
      7 S1         -16.9610    26.9170   -19.7990 ss         1 QKM       0.037600
      8 CB         -14.8550    24.2900   -17.7070 ca         1 QKM      -0.094500
      9 C7         -13.5490    24.1560   -18.1870 ca         1 QKM      -0.095000
     10 C8         -12.6430    23.3290   -17.5540 ca         1 QKM      -0.076500
     11 C9         -13.0330    22.6140   -16.4210 ca         1 QKM      -0.014000
     12 C10        -14.3350    22.7330   -15.9340 ca         1 QKM      -0.076500
     13 C11        -15.2330    23.5630   -16.5760 ca         1 QKM      -0.095000
     14 C12        -12.1020    21.7590   -15.7620 cg         1 QKM       0.323000
     15 N2         -11.3500    21.0660   -15.2310 n1         1 QKM      -0.451000
     16 CZ         -19.6480    27.6490   -17.8940 c3         1 QKM       0.236300
     17 C14        -18.7840    27.9850   -16.6560 c3         1 QKM       0.048600
     18 N3         -19.1180    29.2640   -16.0790 na         1 QKM      -0.069700
     19 C15        -18.5850    30.4620   -16.3480 cc         1 QKM       0.397400
     20 N4         -19.1950    31.3930   -15.6530 nd         1 QKM      -0.690000
     21 C16        -20.1150    30.6910   -14.9570 cd         1 QKM       0.517900
     22 N5         -20.1030    29.4000   -15.1860 nc         1 QKM      -0.529800
     23 CE2        -21.1390    27.7670   -17.5880 ca         1 QKM      -0.129300
     24 CD2        -21.7600    27.0860   -16.5470 ca         1 QKM       0.185000
     25 C19        -23.1060    27.1970   -16.2720 ca         1 QKM      -0.123000
     26 C20        -23.8990    28.0200   -17.0570 ca         1 QKM      -0.115000
     27 C21        -23.2980    28.6960   -18.0960 ca         1 QKM       0.155000
     28 C22        -21.9500    28.5800   -18.3730 ca         1 QKM      -0.116000
     29 F1         -24.0460    29.4940   -18.8760 f          1 QKM      -0.173000
     30 F2         -21.0320    26.2750   -15.7580 f          1 QKM      -0.175000
     31 OH         -19.2900    28.4920   -18.9560 oh         1 QKM      -0.661000
     32 H1         -21.1730    25.8490   -19.4390 hc         1 QKM       0.050033
     33 H2         -19.8850    26.4680   -20.4730 hc         1 QKM       0.050033
     34 H3         -19.8430    24.7980   -19.9120 hc         1 QKM       0.050033
     35 H4         -19.5670    25.5180   -17.5760 hc         1 QKM       0.094700
     36 H5         -14.6130    26.2510   -19.8700 h4         1 QKM       0.163000
     37 H6         -13.2280    24.6940   -19.0690 ha         1 QKM       0.128500
     38 H7         -11.6360    23.2360   -17.9360 ha         1 QKM       0.127000
     39 H8         -14.6400    22.1800   -15.0570 ha         1 QKM       0.127000
     40 H9         -16.2400    23.6520   -16.1940 ha         1 QKM       0.128500
     41 H10        -18.8670    27.2280   -15.8820 h1         1 QKM       0.091200
     42 H11        -17.7370    28.0300   -16.9570 h1         1 QKM       0.091200
     43 H12        -17.7560    30.6000   -17.0280 h5         1 QKM       0.065100
     44 H13        -20.8060    31.1410   -14.2610 h5         1 QKM       0.067100
     45 H14        -23.5340    26.6470   -15.4440 ha         1 QKM       0.140000
     46 H15        -24.9570    28.1250   -16.8580 ha         1 QKM       0.140000
     47 H16        -21.5410    29.1200   -19.2160 ha         1 QKM       0.141000
     48 H17        -19.3470    29.4200   -18.7000 ho         1 QKM       0.458000
@<TRIPOS>BOND
     1     1     2 1   
     2     1    32 1   
     3     1    33 1   
     4     1    34 1   
     5     2     3 1   
     6     2    16 1   
     7     2    35 1   
     8     3     4 2   
     9     3     7 1   
    10     4     5 1   
    11     5     6 2   
    12     5     8 1   
    13     6     7 1   
    14     6    36 1   
    15     8     9 ar  
    16     8    13 ar  
    17     9    10 ar  
    18     9    37 1   
    19    10    11 ar  
    20    10    38 1   
    21    11    12 ar  
    22    11    14 1   
    23    12    13 ar  
    24    12    39 1   
    25    13    40 1   
    26    14    15 3   
    27    16    17 1   
    28    16    23 1   
    29    16    31 1   
    30    17    18 1   
    31    17    41 1   
    32    17    42 1   
    33    18    19 1   
    34    18    22 1   
    35    19    20 2   
    36    19    43 1   
    37    20    21 1   
    38    21    22 2   
    39    21    44 1   
    40    23    24 ar  
    41    23    28 ar  
    42    24    25 ar  
    43    24    30 1   
    44    25    26 ar  
    45    25    45 1   
    46    26    27 ar  
    47    26    46 1   
    48    27    28 ar  
    49    27    29 1   
    50    28    47 1   
    51    31    48 1   
@<TRIPOS>SUBSTRUCTURE
     1 QKM         1 TEMP              0 ****  ****    0 ROOT
