@<TRIPOS>MOLECULE
QKM
   48    51     1     0     0
SMALL
No Charge or Current Charge


@<TRIPOS>ATOM
      1 CD1        -20.3010    25.9040   -19.8340 c3         1 QKM      -0.083100
      2 CE1        -19.4230    26.1680   -18.5760 c3         1 QKM      -0.083000
      3 C3         -17.9600    25.8820   -18.8410 cc         1 QKM       0.418700
      4 N          -17.2150    25.1820   -17.9970 nd         1 QKM      -0.644000
      5 CA         -15.9190    25.0620   -18.4830 cd         1 QKM       0.334500
      6 C          -15.7100    25.6730   -19.7000 cc         1 QKM      -0.274000
      7 S1         -17.1580    26.4310   -20.2940 ss         1 QKM       0.037600
      8 CB         -14.8890    24.3280   -17.7090 ca         1 QKM      -0.094500
      9 C7         -13.5660    24.2010   -18.1930 ca         1 QKM      -0.095000
     10 C8         -12.5920    23.5040   -17.4560 ca         1 QKM      -0.076500
     11 C9         -12.9210    22.9200   -16.2190 ca         1 QKM      -0.014000
     12 C10        -14.2320    23.0390   -15.7260 ca         1 QKM      -0.076500
     13 C11        -15.2060    23.7350   -16.4630 ca         1 QKM      -0.095000
     14 C12        -11.9240    22.2080   -15.4660 cg         1 QKM       0.323000
     15 N2         -11.1090    21.6290   -14.8620 n1         1 QKM      -0.451000
     16 CZ         -19.6590    27.5770   -17.9300 c3         1 QKM       0.236300
     17 C14        -18.7930    27.7670   -16.6390 c3         1 QKM       0.048600
     18 N3         -18.9930    29.0510   -15.9330 na         1 QKM      -0.069700
     19 C15        -18.3310    30.2350   -16.1500 cc         1 QKM       0.397400
     20 N4         -18.7910    31.1310   -15.2960 nd         1 QKM      -0.690000
     21 C16        -19.7370    30.4410   -14.5530 cd         1 QKM       0.517900
     22 N5         -19.8780    29.1700   -14.9090 nc         1 QKM      -0.529800
     23 CE2        -21.1740    27.7940   -17.6510 ca         1 QKM      -0.129300
     24 CD2        -21.8520    27.0570   -16.6400 ca         1 QKM       0.185000
     25 C19        -23.2210    27.2520   -16.3910 ca         1 QKM      -0.123000
     26 C20        -23.9550    28.1770   -17.1490 ca         1 QKM      -0.115000
     27 C21        -23.3140    28.8960   -18.1650 ca         1 QKM       0.155000
     28 C22        -21.9460    28.7080   -18.4220 ca         1 QKM      -0.116000
     29 F1         -24.0200    29.7740   -18.9110 f          1 QKM      -0.173000
     30 F2         -21.2080    26.1280   -15.9000 f          1 QKM      -0.175000
     31 OH         -19.1930    28.5530   -18.8700 oh         1 QKM      -0.661000
     32 H1         -21.3690    25.9260   -19.5840 hc         1 QKM       0.050033
     33 H2         -20.1200    26.6530   -20.6140 hc         1 QKM       0.050033
     34 H3         -20.0820    24.9150   -20.2530 hc         1 QKM       0.050033
     35 H4         -19.7450    25.4240   -17.8390 hc         1 QKM       0.094700
     36 H5         -14.8090    25.7300   -20.2920 h4         1 QKM       0.163000
     37 H6         -13.2760    24.6390   -19.1440 ha         1 QKM       0.128500
     38 H7         -11.5810    23.4200   -17.8490 ha         1 QKM       0.127000
     39 H8         -14.5010    22.5920   -14.7710 ha         1 QKM       0.127000
     40 H9         -16.2110    23.8100   -16.0560 ha         1 QKM       0.128500
     41 H10        -18.9740    26.9480   -15.9340 h1         1 QKM       0.091200
     42 H11        -17.7320    27.7060   -16.9100 h1         1 QKM       0.091200
     43 H12        -17.5670    30.3690   -16.9080 h5         1 QKM       0.065100
     44 H13        -20.2980    30.9140   -13.7540 h5         1 QKM       0.067100
     45 H14        -23.7130    26.6770   -15.6100 ha         1 QKM       0.140000
     46 H15        -25.0150    28.3290   -16.9600 ha         1 QKM       0.140000
     47 H16        -21.5110    29.2770   -19.2380 ha         1 QKM       0.141000
     48 H17        -19.5440    29.4200   -18.5760 ho         1 QKM       0.458000
@<TRIPOS>BOND
     1     1     2 1   
     2     1    32 1   
     3     1    33 1   
     4     1    34 1   
     5     2     3 1   
     6     2    16 1   
     7     2    35 1   
     8     3     4 2   
     9     3     7 1   
    10     4     5 1   
    11     5     6 2   
    12     5     8 1   
    13     6     7 1   
    14     6    36 1   
    15     8     9 ar  
    16     8    13 ar  
    17     9    10 ar  
    18     9    37 1   
    19    10    11 ar  
    20    10    38 1   
    21    11    12 ar  
    22    11    14 1   
    23    12    13 ar  
    24    12    39 1   
    25    13    40 1   
    26    14    15 3   
    27    16    17 1   
    28    16    23 1   
    29    16    31 1   
    30    17    18 1   
    31    17    41 1   
    32    17    42 1   
    33    18    19 1   
    34    18    22 1   
    35    19    20 2   
    36    19    43 1   
    37    20    21 1   
    38    21    22 2   
    39    21    44 1   
    40    23    24 ar  
    41    23    28 ar  
    42    24    25 ar  
    43    24    30 1   
    44    25    26 ar  
    45    25    45 1   
    46    26    27 ar  
    47    26    46 1   
    48    27    28 ar  
    49    27    29 1   
    50    28    47 1   
    51    31    48 1   
@<TRIPOS>SUBSTRUCTURE
     1 QKM         1 TEMP              0 ****  ****    0 ROOT
