@<TRIPOS>MOLECULE
QKO
   46    48     1     0     0
SMALL
No Charge or Current Charge


@<TRIPOS>ATOM
      1 C8          -1.9560     9.2500    13.7050 c5         1 QKO       0.229800
      2 C5          -3.7890     1.8980    14.7520 ca         1 QKO       0.014500
      3 C6          -3.4670     3.2310    14.4440 ca         1 QKO      -0.148500
      4 N1          -6.1170    -0.6650    14.2890 n8         1 QKO      -1.013100
      5 C2          -5.6640     3.9450    15.1860 ca         1 QKO      -0.148500
      6 N3          -0.8660     9.4790    14.6980 nh         1 QKO      -0.805300
      7 C4          -5.0570     1.5860    15.2800 ca         1 QKO      -0.296500
      8 O3          -0.2270    12.9650    11.2960 o          1 QKO      -0.374000
      9 O2           1.6140    14.0110    11.8350 o          1 QKO      -0.374000
     10 C15          0.9320    12.2180    13.2450 ca         1 QKO       0.341500
     11 C14          2.0460    12.3830    14.1010 ca         1 QKO      -0.160000
     12 C13          2.2000    11.5390    15.2100 ca         1 QKO      -0.034000
     13 C12          1.2290    10.5520    15.4300 ca         1 QKO      -0.207000
     14 N5          -0.0040    11.2480    13.4780 nb         1 QKO      -0.717000
     15 C11          0.1460    10.4430    14.5420 ca         1 QKO       0.644900
     16 C10         -0.9870     8.5870    15.8810 c5         1 QKO       0.233800
     17 C9          -2.4350     8.0540    15.7280 c5         1 QKO      -0.118400
     18 C7          -2.5160     7.8800    14.1880 c5         1 QKO       0.073700
     19 N2          -3.9560     7.8610    13.8450 ns         1 QKO      -0.451900
     20 C           -4.7070     6.7170    13.9780 cs         1 QKO       0.481400
     21 S           -6.3310     6.7640    13.6010 s          1 QKO      -0.617400
     22 N           -4.0170     5.5850    14.3330 ns         1 QKO      -0.373100
     23 C1          -4.4040     4.2600    14.6430 ca         1 QKO       0.119600
     24 O1          -4.2690    -0.9230    15.8410 o          1 QKO      -0.553000
     25 O           -6.5890    -0.1720    16.6190 o          1 QKO      -0.553000
     26 C3          -5.9940     2.6140    15.4980 ca         1 QKO       0.014500
     27 H1          -1.5890     9.1850    12.6710 h1         1 QKO       0.075700
     28 H2          -2.7060    10.0520    13.7600 h1         1 QKO       0.075700
     29 H3          -3.0510     1.1150    14.5800 ha         1 QKO       0.141000
     30 H4          -2.4840     3.4600    14.0380 ha         1 QKO       0.134000
     31 H5          -5.5640    -1.5090    14.1630 hn         1 QKO       0.478000
     32 H6          -6.9960    -1.0390    14.6400 hn         1 QKO       0.478000
     33 H7          -6.3910     4.7230    15.3910 ha         1 QKO       0.134000
     34 H8           2.7850    13.1560    13.9080 ha         1 QKO       0.164000
     35 H9           3.0510    11.6460    15.8810 ha         1 QKO       0.132000
     36 H10          1.3250     9.8810    16.2760 ha         1 QKO       0.131000
     37 H11         -0.2520     7.7710    15.8370 h1         1 QKO       0.055700
     38 H12         -0.8610     9.1220    16.8320 h1         1 QKO       0.055700
     39 H13         -3.1580     8.7900    16.1000 hc         1 QKO       0.072700
     40 H14         -2.5950     7.1240    16.2840 hc         1 QKO       0.072700
     41 H15         -1.9240     7.0390    13.8020 h1         1 QKO       0.062700
     42 H16         -4.4650     8.6860    13.5440 hn         1 QKO       0.357500
     43 H17         -3.0210     5.7310    14.4160 hn         1 QKO       0.314500
     44 H18         -6.9760     2.3910    15.9140 ha         1 QKO       0.141000
     45 S1          -5.4730    -0.1120    15.6780 sy         1 QKO       1.157600
     46 N4           0.7600    13.1310    12.0360 no         1 QKO       0.555500
@<TRIPOS>BOND
     1     1     6 1   
     2     1    18 1   
     3     1    27 1   
     4     1    28 1   
     5     2     3 ar  
     6     2     7 ar  
     7     2    29 1   
     8     3    23 ar  
     9     3    30 1   
    10     4    31 1   
    11     4    32 1   
    12     4    45 1   
    13     5    23 ar  
    14     5    26 ar  
    15     5    33 1   
    16     6    15 1   
    17     6    16 1   
    18     7    26 ar  
    19     7    45 1   
    20     8    46 1   
    21     9    46 1   
    22    10    11 ar  
    23    10    14 ar  
    24    10    46 1   
    25    11    12 ar  
    26    11    34 1   
    27    12    13 ar  
    28    12    35 1   
    29    13    15 ar  
    30    13    36 1   
    31    14    15 ar  
    32    16    17 1   
    33    16    37 1   
    34    16    38 1   
    35    17    18 1   
    36    17    39 1   
    37    17    40 1   
    38    18    19 1   
    39    18    41 1   
    40    19    20 1   
    41    19    42 1   
    42    20    21 2   
    43    20    22 1   
    44    22    23 1   
    45    22    43 1   
    46    24    45 2   
    47    25    45 2   
    48    26    44 1   
@<TRIPOS>SUBSTRUCTURE
     1 QKO         1 TEMP              0 ****  ****    0 ROOT
