@<TRIPOS>MOLECULE
QKO
   46    48     1     0     0
SMALL
abcg2


@<TRIPOS>ATOM
      1 C8          -1.8520     9.1990    13.7600 c5         1 QKO       0.229800
      2 C5          -3.9540     1.7740    14.5550 ca         1 QKO       0.014500
      3 C6          -3.5570     3.0580    14.2260 ca         1 QKO      -0.148500
      4 N1          -6.1570    -0.6560    14.2710 n8         1 QKO      -1.013100
      5 C2          -5.4980     3.9620    15.3470 ca         1 QKO      -0.148500
      6 N3          -0.8250     9.5170    14.7430 nh         1 QKO      -0.805300
      7 C4          -5.1310     1.5880    15.2760 ca         1 QKO      -0.296500
      8 O3          -0.1780    12.6110    11.1960 o          1 QKO      -0.374000
      9 O2           1.3280    14.0070    11.8590 o          1 QKO      -0.374000
     10 C15          0.8260    12.2240    13.2700 ca         1 QKO       0.341500
     11 C14          1.8600    12.5740    14.1100 ca         1 QKO      -0.160000
     12 C13          1.9920    11.7850    15.2600 ca         1 QKO      -0.034000
     13 C12          1.1170    10.7510    15.4950 ca         1 QKO      -0.207000
     14 N5          -0.0400    11.2500    13.4480 nb         1 QKO      -0.717000
     15 C11          0.0780    10.5020    14.5580 ca         1 QKO       0.644900
     16 C10         -0.8680     8.6460    15.9200 c5         1 QKO       0.233800
     17 C9          -2.2090     7.9340    15.7790 c5         1 QKO      -0.118400
     18 C7          -2.4030     7.8590    14.2570 c5         1 QKO       0.073700
     19 N2          -3.7770     7.6710    13.8220 ns         1 QKO      -0.451900
     20 C           -4.5200     6.5560    13.9330 cs         1 QKO       0.481400
     21 S           -6.1740     6.6020    13.5800 s          1 QKO      -0.617400
     22 N           -3.8380     5.4350    14.2960 ns         1 QKO      -0.373100
     23 C1          -4.3300     4.1590    14.6110 ca         1 QKO       0.119600
     24 O1          -4.4770    -0.8370    16.0690 o          1 QKO      -0.553000
     25 O           -6.7090     0.0670    16.6750 o          1 QKO      -0.553000
     26 C3          -5.8990     2.6770    15.6740 ca         1 QKO       0.014500
     27 H1          -1.4340     9.1320    12.7570 h1         1 QKO       0.075700
     28 H2          -2.6370     9.9650    13.7490 h1         1 QKO       0.075700
     29 H3          -3.3550     0.9270    14.2510 ha         1 QKO       0.141000
     30 H4          -2.6450     3.2160    13.6630 ha         1 QKO       0.134000
     31 H5          -6.1020    -1.6710    14.2670 hn         1 QKO       0.478000
     32 H6          -7.0890    -0.3330    14.0270 hn         1 QKO       0.478000
     33 H7          -6.0820     4.8090    15.6710 ha         1 QKO       0.134000
     34 H8           2.5260    13.3920    13.8890 ha         1 QKO       0.164000
     35 H9           2.7890    11.9880    15.9630 ha         1 QKO       0.132000
     36 H10          1.2220    10.1340    16.3740 ha         1 QKO       0.131000
     37 H11         -0.0320     7.9390    15.9050 h1         1 QKO       0.055700
     38 H12         -0.8070     9.2270    16.8400 h1         1 QKO       0.055700
     39 H13         -3.0100     8.5410    16.2050 hc         1 QKO       0.072700
     40 H14         -2.2150     6.9590    16.2620 hc         1 QKO       0.072700
     41 H15         -1.7760     7.0650    13.8440 h1         1 QKO       0.062700
     42 H16         -4.2970     8.4930    13.5540 hn         1 QKO       0.357500
     43 H17         -2.8320     5.4760    14.2140 hn         1 QKO       0.314500
     44 H18         -6.8000     2.5210    16.2510 ha         1 QKO       0.141000
     45 S1          -5.6360    -0.0470    15.7110 sy         1 QKO       1.157600
     46 N4           0.6390    13.0050    12.0100 no         1 QKO       0.555500
@<TRIPOS>BOND
     1     1     6 1   
     2     1    18 1   
     3     1    27 1   
     4     1    28 1   
     5     2     3 ar  
     6     2     7 ar  
     7     2    29 1   
     8     3    23 ar  
     9     3    30 1   
    10     4    31 1   
    11     4    32 1   
    12     4    45 1   
    13     5    23 ar  
    14     5    26 ar  
    15     5    33 1   
    16     6    15 1   
    17     6    16 1   
    18     7    26 ar  
    19     7    45 1   
    20     8    46 1   
    21     9    46 1   
    22    10    11 ar  
    23    10    14 ar  
    24    10    46 1   
    25    11    12 ar  
    26    11    34 1   
    27    12    13 ar  
    28    12    35 1   
    29    13    15 ar  
    30    13    36 1   
    31    14    15 ar  
    32    16    17 1   
    33    16    37 1   
    34    16    38 1   
    35    17    18 1   
    36    17    39 1   
    37    17    40 1   
    38    18    19 1   
    39    18    41 1   
    40    19    20 1   
    41    19    42 1   
    42    20    21 2   
    43    20    22 1   
    44    22    23 1   
    45    22    43 1   
    46    24    45 2   
    47    25    45 2   
    48    26    44 1   
@<TRIPOS>SUBSTRUCTURE
     1 QKO         1 TEMP              0 ****  ****    0 ROOT
