@<TRIPOS>MOLECULE
QKP
   69    72     1     0     0
SMALL
bcc


@<TRIPOS>ATOM
      1 C14        -13.0500   -11.3460     5.1390 ca         1 QKP       0.125100
      2 C11        -13.0590    -9.2030     3.3730 ca         1 QKP      -0.070800
      3 C10        -12.4340    -4.9150    -0.2520 ca         1 QKP       0.260100
      4 C12        -12.0510   -10.1660     3.3090 ca         1 QKP      -0.091500
      5 C13        -12.0380   -11.2460     4.1800 ca         1 QKP      -0.092300
      6 C01        -11.7010    -6.8040     1.0280 ca         1 QKP       0.230100
      7 C02        -12.7490    -5.9580     0.6630 ca         1 QKP      -0.296600
      8 C03        -14.0830    -6.1940     1.2230 c          1 QKP       0.605900
      9 C04        -14.1550    -7.3170     2.1380 cc         1 QKP      -0.331200
     10 C05        -13.0790    -8.0650     2.4490 cd         1 QKP       0.198900
     11 C07        -10.4030    -6.6840     0.5470 ca         1 QKP      -0.305000
     12 C08        -10.1370    -5.6620    -0.3480 ca         1 QKP       0.237100
     13 C09        -11.1510    -4.7770    -0.7450 ca         1 QKP      -0.313000
     14 C15        -14.0700   -10.3960     5.2310 ca         1 QKP      -0.092300
     15 C16        -14.0510    -9.3300     4.3410 ca         1 QKP      -0.091500
     16 C17        -15.1490   -10.4960     6.2680 c3         1 QKP      -0.045800
     17 C18        -10.9500   -12.2780     4.1190 c3         1 QKP      -0.045800
     18 C21        -13.4990   -14.5920     6.7160 c3         1 QKP       0.147100
     19 C22        -13.6760   -14.1800     8.1780 c3         1 QKP       0.145800
     20 C25        -16.0940   -14.2110     8.4230 c6         1 QKP       0.163300
     21 C26        -17.3030   -13.3350     8.6830 c6         1 QKP       0.162800
     22 C28        -15.9820   -11.8960    10.0300 c6         1 QKP       0.162800
     23 C29        -14.7700   -12.7700     9.7690 c6         1 QKP       0.163300
     24 C34        -13.1670    -3.0340    -1.4930 c3         1 QKP       0.120700
     25 N24        -14.8730   -13.4280     8.4800 n3         1 QKP      -0.721600
     26 N27        -17.2020   -12.6740     9.9680 n3         1 QKP      -0.715600
     27 O06        -11.8810    -7.8170     1.9010 os         1 QKP      -0.222200
     28 O19        -12.9880   -12.3780     6.0220 os         1 QKP      -0.347900
     29 O23        -14.2940   -15.6930     6.3230 oh         1 QKP      -0.600800
     30 O31         -8.9390    -5.4360    -0.8890 os         1 QKP      -0.310900
     31 O35        -15.0780    -5.5300     0.9590 o          1 QKP      -0.533100
     32 H1         -11.2690   -10.0930     2.5650 ha         1 QKP       0.142000
     33 H2         -15.1190    -7.5550     2.5650 ha         1 QKP       0.162000
     34 H5          -9.6500    -7.3830     0.8820 ha         1 QKP       0.156000
     35 H6         -10.8950    -3.9920    -1.4420 ha         1 QKP       0.155000
     36 H7         -14.8220    -8.5750     4.4330 ha         1 QKP       0.142000
     37 H8         -16.0080   -11.0570     5.8910 hc         1 QKP       0.048533
     38 H9         -14.8120   -11.0120     7.1640 hc         1 QKP       0.048533
     39 H10        -15.5090    -9.5070     6.5490 hc         1 QKP       0.048533
     40 H11        -10.3540   -12.2820     5.0320 hc         1 QKP       0.048533
     41 H12        -11.3500   -13.2850     3.9930 hc         1 QKP       0.048533
     42 H13        -10.2780   -12.0840     3.2850 hc         1 QKP       0.048533
     43 H14        -14.8920   -13.1930     5.8420 h1         1 QKP       0.048700
     44 H15        -13.6770   -13.8290     4.7130 h1         1 QKP       0.048700
     45 H16        -12.4340   -14.8400     6.5930 h1         1 QKP       0.039700
     46 H17        -13.5840   -15.0850     8.8070 h1         1 QKP       0.037200
     47 H18        -12.8190   -13.5550     8.4400 h1         1 QKP       0.037200
     48 H20        -16.0760   -15.0360     9.1580 h1         1 QKP       0.040950
     49 H21        -17.4020   -12.6050     7.8590 h1         1 QKP       0.036950
     50 H22        -18.2020   -13.9560     8.6710 h1         1 QKP       0.036950
     51 H23        -15.8920   -11.4470    11.0230 h1         1 QKP       0.036950
     52 H24        -15.9930   -11.0670     9.3000 h1         1 QKP       0.036950
     53 H25        -14.6670   -13.4990    10.5910 h1         1 QKP       0.040950
     54 H26        -13.8750   -12.1430     9.7780 h1         1 QKP       0.040950
     55 H27        -18.2830   -11.4050    11.2280 h1         1 QKP       0.030700
     56 H28        -18.5020   -11.0480     9.5070 h1         1 QKP       0.030700
     57 H29        -19.2650   -12.4750    10.2290 h1         1 QKP       0.030700
     58 H33        -14.1110    -2.5130    -1.6270 h1         1 QKP       0.046367
     59 H34        -12.4290    -2.3360    -1.0920 h1         1 QKP       0.046367
     60 H35        -12.8220    -3.3980    -2.4640 h1         1 QKP       0.046367
     61 H38        -14.1310   -16.4160     6.9360 ho         1 QKP       0.408000
     62 O33        -13.4280    -4.0980    -0.5950 os         1 QKP      -0.275900
     63 C20        -13.8400   -13.4790     5.7400 c3         1 QKP       0.153400
     64 C32         -7.8590    -6.2870    -0.5440 c3         1 QKP       0.123700
     65 H19        -16.1970   -14.6620     7.4380 h1         1 QKP       0.040950
     66 C30        -18.3640   -11.8600    10.2390 c3         1 QKP       0.152100
     67 H30         -6.9990    -5.9320    -1.1050 h1         1 QKP       0.046367
     68 H31         -7.6310    -6.2360     0.5230 h1         1 QKP       0.046367
     69 H32         -8.0590    -7.3250    -0.8180 h1         1 QKP       0.046367
@<TRIPOS>BOND
     1     1     5 ar  
     2     1    14 ar  
     3     1    28 1   
     4     2     4 ar  
     5     2    10 1   
     6     2    15 ar  
     7     3     7 ar  
     8     3    13 ar  
     9     3    62 1   
    10     4     5 ar  
    11     4    32 1   
    12     5    17 1   
    13     6     7 ar  
    14     6    11 ar  
    15     6    27 1   
    16     7     8 1   
    17     8     9 1   
    18     8    31 2   
    19     9    10 2   
    20     9    33 1   
    21    10    27 1   
    22    11    12 ar  
    23    11    34 1   
    24    12    13 ar  
    25    12    30 1   
    26    13    35 1   
    27    14    15 ar  
    28    14    16 1   
    29    15    36 1   
    30    16    37 1   
    31    16    38 1   
    32    16    39 1   
    33    17    40 1   
    34    17    41 1   
    35    17    42 1   
    36    18    19 1   
    37    18    29 1   
    38    18    45 1   
    39    18    63 1   
    40    19    25 1   
    41    19    46 1   
    42    19    47 1   
    43    20    21 1   
    44    20    25 1   
    45    20    48 1   
    46    20    65 1   
    47    21    26 1   
    48    21    49 1   
    49    21    50 1   
    50    22    23 1   
    51    22    26 1   
    52    22    51 1   
    53    22    52 1   
    54    23    25 1   
    55    23    53 1   
    56    23    54 1   
    57    24    58 1   
    58    24    59 1   
    59    24    60 1   
    60    24    62 1   
    61    26    66 1   
    62    28    63 1   
    63    29    61 1   
    64    30    64 1   
    65    43    63 1   
    66    44    63 1   
    67    55    66 1   
    68    56    66 1   
    69    57    66 1   
    70    64    67 1   
    71    64    68 1   
    72    64    69 1   
@<TRIPOS>SUBSTRUCTURE
     1 QKP         1 TEMP              0 ****  ****    0 ROOT
