@<TRIPOS>MOLECULE
QKP
   69    72     1     0     0
SMALL
No Charge or Current Charge


@<TRIPOS>ATOM
      1 C14        -12.5360   -11.2070     5.5080 ca         1 QKP       0.125100
      2 C11        -12.6710    -8.9720     3.7690 ca         1 QKP      -0.070800
      3 C10        -12.4040    -4.7300    -0.1040 ca         1 QKP       0.260100
      4 C12        -11.6820    -9.9700     3.5950 ca         1 QKP      -0.073500
      5 C13        -11.6060   -11.0810     4.4560 ca         1 QKP      -0.092300
      6 C01        -11.6840    -6.8120     0.9160 ca         1 QKP       0.230100
      7 C02        -12.5620    -5.7180     0.8960 ca         1 QKP      -0.296600
      8 C03        -13.6280    -5.6570     1.9470 c          1 QKP       0.605900
      9 C04        -13.6380    -6.7650     2.8970 cc         1 QKP      -0.381200
     10 C05        -12.7390    -7.8060     2.8510 cd         1 QKP       0.198900
     11 C07        -10.6640    -6.9360    -0.0320 ca         1 QKP      -0.287000
     12 C08        -10.5060    -5.9580    -1.0250 ca         1 QKP       0.237100
     13 C09        -11.3730    -4.8640    -1.0570 ca         1 QKP      -0.295000
     14 C15        -13.5220   -10.2190     5.7100 ca         1 QKP      -0.092300
     15 C16        -13.5840    -9.1150     4.8380 ca         1 QKP      -0.073500
     16 C17        -14.5220   -10.3280     6.8580 c3         1 QKP      -0.045800
     17 C18        -10.5240   -12.1340     4.2380 c3         1 QKP      -0.045800
     18 C21        -13.1170   -14.4860     7.1870 c3         1 QKP       0.170300
     19 C22        -13.6940   -13.9800     8.5520 c3         1 QKP       0.145800
     20 C25        -16.1600   -14.3330     8.1540 c6         1 QKP       0.163300
     21 C26        -17.5650   -13.6480     8.1460 c6         1 QKP       0.162800
     22 C28        -16.8070   -12.0570     9.8420 c6         1 QKP       0.162800
     23 C29        -15.4050   -12.7450     9.8590 c6         1 QKP       0.163300
     24 C34        -13.1630    -2.6030    -1.1230 c3         1 QKP       0.143900
     25 N24        -15.0670   -13.3900     8.5530 n3         1 QKP      -0.721600
     26 N27        -17.8960   -13.0020     9.4530 n3         1 QKP      -0.715600
     27 O06        -11.7930    -7.7980     1.8640 os         1 QKP      -0.222200
     28 O19        -12.4730   -12.2950     6.3460 os         1 QKP      -0.371100
     29 O23        -13.6920   -15.7540     6.8020 oh         1 QKP      -0.663000
     30 O31         -9.5210    -6.0260    -1.9860 os         1 QKP      -0.334100
     31 O35        -14.4520    -4.7590     2.0350 o          1 QKP      -0.533100
     32 H1         -10.9610    -9.8910     2.7850 ha         1 QKP       0.124000
     33 H2         -14.4160    -6.6990     3.6440 ha         1 QKP       0.212000
     34 H5         -10.0090    -7.7990     0.0220 ha         1 QKP       0.138000
     35 H6         -11.2240    -4.1260    -1.8370 ha         1 QKP       0.137000
     36 H7         -14.3540    -8.3680     5.0070 ha         1 QKP       0.124000
     37 H8         -15.3040   -11.0620     6.6310 hc         1 QKP       0.048533
     38 H9         -14.0290   -10.6400     7.7870 hc         1 QKP       0.048533
     39 H10        -15.0170    -9.3710     7.0610 hc         1 QKP       0.048533
     40 H11        -10.0250   -12.3920     5.1790 hc         1 QKP       0.048533
     41 H12        -10.9510   -13.0540     3.8210 hc         1 QKP       0.048533
     42 H13         -9.7500   -11.7860     3.5440 hc         1 QKP       0.048533
     43 H14        -14.3300   -13.1800     5.9310 h1         1 QKP       0.048700
     44 H15        -12.9420   -13.9040     5.0970 h1         1 QKP       0.048700
     45 H16        -12.0390   -14.6340     7.3370 h1         1 QKP       0.039700
     46 H17        -13.6470   -14.8060     9.2760 h1         1 QKP       0.037200
     47 H18        -12.9940   -13.2180     8.9190 h1         1 QKP       0.037200
     48 H20        -16.1900   -15.1920     8.8410 h1         1 QKP       0.040950
     49 H21        -17.5800   -12.8970     7.3420 h1         1 QKP       0.036950
     50 H22        -18.3230   -14.4040     7.8930 h1         1 QKP       0.036950
     51 H23        -17.0050   -11.6390    10.8390 h1         1 QKP       0.036950
     52 H24        -16.7710   -11.2110     9.1390 h1         1 QKP       0.036950
     53 H25        -15.3930   -13.4950    10.6640 h1         1 QKP       0.040950
     54 H26        -14.6500   -11.9880    10.1160 h1         1 QKP       0.040950
     55 H27        -19.4590   -11.9500    10.4450 h1         1 QKP       0.030700
     56 H28        -19.2830   -11.5570     8.7180 h1         1 QKP       0.030700
     57 H29        -20.0100   -13.1050     9.2130 h1         1 QKP       0.030700
     58 H33        -13.9430    -1.8500    -0.9560 h1         1 QKP       0.046367
     59 H34        -12.1890    -2.1010    -1.0660 h1         1 QKP       0.046367
     60 H35        -13.2940    -3.0080    -2.1350 h1         1 QKP       0.046367
     61 H38        -13.5360   -16.3790     7.5440 ho         1 QKP       0.447000
     62 O33        -13.2600    -3.6460    -0.1380 os         1 QKP      -0.299100
     63 C20        -13.2740   -13.4530     6.0410 c3         1 QKP       0.176600
     64 C32         -8.5770    -7.1100    -2.0420 c3         1 QKP       0.146900
     65 H19        -15.9830   -14.7290     7.1450 h1         1 QKP       0.040950
     66 C30        -19.2310   -12.3690     9.4560 c3         1 QKP       0.152100
     67 H30         -7.8840    -6.9670    -2.8800 h1         1 QKP       0.046367
     68 H31         -7.9870    -7.1620    -1.1180 h1         1 QKP       0.046367
     69 H32         -9.0920    -8.0680    -2.1870 h1         1 QKP       0.046367
@<TRIPOS>BOND
     1     1     5 ar  
     2     1    14 ar  
     3     1    28 1   
     4     2     4 ar  
     5     2    10 1   
     6     2    15 ar  
     7     3     7 ar  
     8     3    13 ar  
     9     3    62 1   
    10     4     5 ar  
    11     4    32 1   
    12     5    17 1   
    13     6     7 ar  
    14     6    11 ar  
    15     6    27 1   
    16     7     8 1   
    17     8     9 1   
    18     8    31 2   
    19     9    10 2   
    20     9    33 1   
    21    10    27 1   
    22    11    12 ar  
    23    11    34 1   
    24    12    13 ar  
    25    12    30 1   
    26    13    35 1   
    27    14    15 ar  
    28    14    16 1   
    29    15    36 1   
    30    16    37 1   
    31    16    38 1   
    32    16    39 1   
    33    17    40 1   
    34    17    41 1   
    35    17    42 1   
    36    18    19 1   
    37    18    29 1   
    38    18    45 1   
    39    18    63 1   
    40    19    25 1   
    41    19    46 1   
    42    19    47 1   
    43    20    21 1   
    44    20    25 1   
    45    20    48 1   
    46    20    65 1   
    47    21    26 1   
    48    21    49 1   
    49    21    50 1   
    50    22    23 1   
    51    22    26 1   
    52    22    51 1   
    53    22    52 1   
    54    23    25 1   
    55    23    53 1   
    56    23    54 1   
    57    24    58 1   
    58    24    59 1   
    59    24    60 1   
    60    24    62 1   
    61    26    66 1   
    62    28    63 1   
    63    29    61 1   
    64    30    64 1   
    65    43    63 1   
    66    44    63 1   
    67    55    66 1   
    68    56    66 1   
    69    57    66 1   
    70    64    67 1   
    71    64    68 1   
    72    64    69 1   
@<TRIPOS>SUBSTRUCTURE
     1 QKP         1 TEMP              0 ****  ****    0 ROOT
