@<TRIPOS>MOLECULE
QKQ
   50    53     1     0     0
SMALL
No Charge or Current Charge


@<TRIPOS>ATOM
      1 N1           3.3030    26.5310    55.3270 nb         1 QKQ      -0.654000
      2 N3          -6.3830    31.8810    54.7480 na         1 QKQ      -0.170500
      3 C4           1.5670    29.3380    52.4330 ca         1 QKQ      -0.050500
      4 C5           1.3820    29.4410    53.8330 cp         1 QKQ      -0.075000
      5 C6           1.6960    28.2800    54.7310 cp         1 QKQ      -0.037000
      6 C7           2.9170    27.5830    54.5720 ca         1 QKQ       0.333900
      7 C8           2.4590    26.1150    56.2930 ca         1 QKQ       0.367900
      8 C10          0.3730    26.2320    57.5500 ca         1 QKQ      -0.050000
      9 C15         -5.1950    29.7840    55.4920 c3         1 QKQ      -0.123400
     10 C17         -6.1530    32.0630    53.4000 cc         1 QKQ      -0.234000
     11 C20          0.8120    27.8220    55.7490 ca         1 QKQ       0.301000
     12 C21          0.9190    30.6770    54.3510 ca         1 QKQ      -0.050500
     13 C22          0.6350    31.7620    53.5030 ca         1 QKQ      -0.179000
     14 C1           0.0600    33.9420    51.6650 c3         1 QKQ       0.145900
     15 C11         -0.8660    26.8590    57.7470 ca         1 QKQ      -0.123000
     16 C12         -1.2280    27.9480    56.9310 ca         1 QKQ       0.326500
     17 C14         -4.0560    30.5020    56.2460 c3         1 QKQ       0.105000
     18 C16         -6.5100    30.5920    55.4470 c3         1 QKQ       0.074600
     19 C18         -6.1080    33.4200    53.2140 cd         1 QKQ       0.222900
     20 C19         -6.4730    33.1330    55.3210 cc         1 QKQ       0.385400
     21 C2           0.8150    31.6350    52.1100 ca         1 QKQ       0.151100
     22 C3           1.2840    30.4220    51.5840 ca         1 QKQ      -0.179000
     23 C9           1.2160    26.7200    56.5360 ca         1 QKQ      -0.134000
     24 N2          -2.8310    29.7020    56.2760 ns         1 QKQ      -0.486900
     25 N4          -6.3070    34.0810    54.4090 nd         1 QKQ      -0.672000
     26 N5          -0.3940    28.4090    55.9510 nb         1 QKQ      -0.677000
     27 O1           0.5520    32.6620    51.2280 os         1 QKQ      -0.340100
     28 O2          -3.4000    28.3040    57.9830 o          1 QKQ      -0.601100
     29 H1           1.9230    28.4050    52.0000 ha         1 QKQ       0.117500
     30 H2           3.6260    27.8970    53.8060 h4         1 QKQ       0.028100
     31 H3           2.7910    25.2640    56.8870 h4         1 QKQ       0.025100
     32 H4           0.6670    25.3860    58.1690 ha         1 QKQ       0.129000
     33 H5          -4.8700    29.5630    54.4680 hc         1 QKQ       0.063200
     34 H6          -5.3960    28.8200    55.9760 hc         1 QKQ       0.063200
     35 H7          -6.0400    31.2480    52.6960 h4         1 QKQ       0.157000
     36 H8           0.7880    30.7960    55.4240 ha         1 QKQ       0.117500
     37 H9           0.2810    32.6880    53.9450 ha         1 QKQ       0.125500
     38 H10         -0.0840    34.6080    50.8050 h1         1 QKQ       0.043700
     39 H11         -0.9050    33.8350    52.1770 h1         1 QKQ       0.043700
     40 H12          0.7710    34.4200    52.3500 h1         1 QKQ       0.043700
     41 H13         -1.5410    26.5060    58.5220 ha         1 QKQ       0.153000
     42 H14         -4.3700    30.7190    57.2760 h1         1 QKQ       0.061700
     43 H15         -3.8320    31.4580    55.7540 h1         1 QKQ       0.061700
     44 H16         -6.8600    30.7750    56.4720 h1         1 QKQ       0.063700
     45 H17         -7.2790    29.9980    54.9370 h1         1 QKQ       0.063700
     46 H18         -5.9440    33.9570    52.2870 h4         1 QKQ       0.035100
     47 H19         -6.6520    33.2790    56.3810 h5         1 QKQ       0.053100
     48 H20          1.4260    30.3200    50.5110 ha         1 QKQ       0.125500
     49 H21         -2.0920    29.9000    55.6080 hn         1 QKQ       0.347500
     50 C13         -2.5820    28.6420    57.1310 c          1 QKQ       0.501600
@<TRIPOS>BOND
     1     1     6 ar  
     2     1     7 ar  
     3     2    10 1   
     4     2    18 1   
     5     2    20 1   
     6     3     4 ar  
     7     3    22 ar  
     8     3    29 1   
     9     4     5 1   
    10     4    12 ar  
    11     5     6 ar  
    12     5    11 ar  
    13     6    30 1   
    14     7    23 ar  
    15     7    31 1   
    16     8    15 ar  
    17     8    23 ar  
    18     8    32 1   
    19     9    17 1   
    20     9    18 1   
    21     9    33 1   
    22     9    34 1   
    23    10    19 2   
    24    10    35 1   
    25    11    23 ar  
    26    11    26 ar  
    27    12    13 ar  
    28    12    36 1   
    29    13    21 ar  
    30    13    37 1   
    31    14    27 1   
    32    14    38 1   
    33    14    39 1   
    34    14    40 1   
    35    15    16 ar  
    36    15    41 1   
    37    16    26 ar  
    38    16    50 1   
    39    17    24 1   
    40    17    42 1   
    41    17    43 1   
    42    18    44 1   
    43    18    45 1   
    44    19    25 1   
    45    19    46 1   
    46    20    25 2   
    47    20    47 1   
    48    21    22 ar  
    49    21    27 1   
    50    22    48 1   
    51    24    49 1   
    52    24    50 1   
    53    28    50 2   
@<TRIPOS>SUBSTRUCTURE
     1 QKQ         1 TEMP              0 ****  ****    0 ROOT
