@<TRIPOS>MOLECULE
QKQ
   50    53     1     0     0
SMALL
abcg2


@<TRIPOS>ATOM
      1 N1           3.2880    26.7500    55.3720 nb         1 QKQ      -0.654000
      2 N3          -5.8400    32.0040    54.5390 na         1 QKQ      -0.170500
      3 C4           1.2820    29.3760    52.5300 ca         1 QKQ      -0.050500
      4 C5           1.1680    29.4870    53.9170 cp         1 QKQ      -0.075000
      5 C6           1.6090    28.3870    54.7920 cp         1 QKQ      -0.037000
      6 C7           2.8340    27.7830    54.6310 ca         1 QKQ       0.333900
      7 C8           2.5250    26.2770    56.3180 ca         1 QKQ       0.367900
      8 C10          0.4000    26.2790    57.6080 ca         1 QKQ      -0.050000
      9 C15         -4.9550    29.8020    55.2260 c3         1 QKQ      -0.123400
     10 C17         -5.2900    32.2970    53.3230 cc         1 QKQ      -0.234000
     11 C20          0.7700    27.8690    55.8180 ca         1 QKQ       0.301000
     12 C21          0.6120    30.6560    54.4310 ca         1 QKQ      -0.050500
     13 C22          0.1620    31.6730    53.6020 ca         1 QKQ      -0.179000
     14 C1          -0.8370    33.5990    51.8190 c3         1 QKQ       0.145900
     15 C11         -0.8360    26.8340    57.7950 ca         1 QKQ      -0.123000
     16 C12         -1.2140    27.9030    56.9590 ca         1 QKQ       0.326500
     17 C14         -3.9750    30.3690    56.2480 c3         1 QKQ       0.105000
     18 C16         -6.1810    30.6830    55.0340 c3         1 QKQ       0.074600
     19 C18         -5.0890    33.6480    53.3280 cd         1 QKQ       0.222900
     20 C19         -5.9400    33.1680    55.2150 cc         1 QKQ       0.385400
     21 C2           0.2620    31.5360    52.2180 ca         1 QKQ       0.151100
     22 C3           0.8390    30.3800    51.6890 ca         1 QKQ      -0.179000
     23 C9           1.2410    26.7920    56.6000 ca         1 QKQ      -0.134000
     24 N2          -2.7560    29.6010    56.3250 ns         1 QKQ      -0.486900
     25 N4          -5.5000    34.1830    54.5160 nd         1 QKQ      -0.672000
     26 N5          -0.4520    28.3900    56.0170 nb         1 QKQ      -0.677000
     27 O1          -0.1680    32.4520    51.3330 os         1 QKQ      -0.340100
     28 O2          -3.3770    28.1240    57.9360 o          1 QKQ      -0.601100
     29 H1           1.6990    28.4770    52.0940 ha         1 QKQ       0.117500
     30 H2           3.5150    28.1460    53.8700 h4         1 QKQ       0.028100
     31 H3           2.9080    25.4480    56.9060 h4         1 QKQ       0.025100
     32 H4           0.7370    25.4510    58.2190 ha         1 QKQ       0.129000
     33 H5          -4.4460    29.6610    54.2690 hc         1 QKQ       0.063200
     34 H6          -5.2930    28.8150    55.5480 hc         1 QKQ       0.063200
     35 H7          -5.0990    31.5430    52.5780 h4         1 QKQ       0.157000
     36 H8           0.5300    30.7930    55.5010 ha         1 QKQ       0.117500
     37 H9          -0.2600    32.5600    54.0530 ha         1 QKQ       0.125500
     38 H10         -1.1090    34.1900    50.9480 h1         1 QKQ       0.043700
     39 H11         -1.7490    33.3370    52.3640 h1         1 QKQ       0.043700
     40 H12         -0.2000    34.2040    52.4690 h1         1 QKQ       0.043700
     41 H13         -1.5090    26.4660    58.5550 ha         1 QKQ       0.153000
     42 H14         -4.4380    30.4150    57.2340 h1         1 QKQ       0.061700
     43 H15         -3.6950    31.3890    55.9810 h1         1 QKQ       0.061700
     44 H16         -6.7130    30.8130    55.9770 h1         1 QKQ       0.063700
     45 H17         -6.8730    30.2110    54.3370 h1         1 QKQ       0.063700
     46 H18         -4.6770    34.2580    52.5380 h4         1 QKQ       0.035100
     47 H19         -6.3480    33.2150    56.2140 h5         1 QKQ       0.053100
     48 H20          0.9210    30.2660    50.6150 ha         1 QKQ       0.125500
     49 H21         -2.0060    29.8120    55.6830 hn         1 QKQ       0.347500
     50 C13         -2.5680    28.5490    57.1240 c          1 QKQ       0.501600
@<TRIPOS>BOND
     1     1     6 ar  
     2     1     7 ar  
     3     2    10 1   
     4     2    18 1   
     5     2    20 1   
     6     3     4 ar  
     7     3    22 ar  
     8     3    29 1   
     9     4     5 1   
    10     4    12 ar  
    11     5     6 ar  
    12     5    11 ar  
    13     6    30 1   
    14     7    23 ar  
    15     7    31 1   
    16     8    15 ar  
    17     8    23 ar  
    18     8    32 1   
    19     9    17 1   
    20     9    18 1   
    21     9    33 1   
    22     9    34 1   
    23    10    19 2   
    24    10    35 1   
    25    11    23 ar  
    26    11    26 ar  
    27    12    13 ar  
    28    12    36 1   
    29    13    21 ar  
    30    13    37 1   
    31    14    27 1   
    32    14    38 1   
    33    14    39 1   
    34    14    40 1   
    35    15    16 ar  
    36    15    41 1   
    37    16    26 ar  
    38    16    50 1   
    39    17    24 1   
    40    17    42 1   
    41    17    43 1   
    42    18    44 1   
    43    18    45 1   
    44    19    25 1   
    45    19    46 1   
    46    20    25 2   
    47    20    47 1   
    48    21    22 ar  
    49    21    27 1   
    50    22    48 1   
    51    24    49 1   
    52    24    50 1   
    53    28    50 2   
@<TRIPOS>SUBSTRUCTURE
     1 QKQ         1 TEMP              0 ****  ****    0 ROOT
