@<TRIPOS>MOLECULE
QKR
   34    36     1     0     0
SMALL
abcg2


@<TRIPOS>ATOM
      1 N1         -16.4950     4.6990    26.9310 nb         1 QKR      -0.654000
      2 C4         -16.0530     5.7390    26.2620 ca         1 QKR       0.366900
      3 C5         -16.8750     6.8000    25.8130 ca         1 QKR      -0.093000
      4 C6         -16.3570     7.8940    25.0830 ca         1 QKR      -0.083000
      5 C7         -17.1940     8.8880    24.6460 ca         1 QKR      -0.105000
      6 C8         -18.5780     8.8210    24.9190 ca         1 QKR      -0.087000
      7 C10        -18.2680     6.7420    26.1010 ca         1 QKR      -0.001000
      8 C13        -22.2030     4.7340    32.0820 ca         1 QKR      -0.099000
      9 C15        -22.1070     2.7580    30.7040 ca         1 QKR       0.114000
     10 CL1        -22.0350     1.0340    30.5180 cl         1 QKR      -0.167000
     11 C14        -22.1470     3.3500    31.9670 ca         1 QKR       0.142000
     12 CL         -22.1280     2.3870    33.4100 cl         1 QKR      -0.164000
     13 C12        -22.2190     5.5280    30.9460 ca         1 QKR      -0.049000
     14 C16        -22.1240     3.5520    29.5650 ca         1 QKR      -0.067000
     15 C11        -22.1870     4.9340    29.6870 ca         1 QKR      -0.156300
     16 C          -22.1480     5.7950    28.4520 c3         1 QKR       0.152300
     17 F          -22.7030     5.1310    27.3850 f          1 QKR      -0.099500
     18 F1         -22.8880     6.9280    28.6310 f          1 QKR      -0.099500
     19 C1         -20.6990     6.2310    28.1080 c          1 QKR       0.566100
     20 O          -20.1990     7.1690    28.7020 o          1 QKR      -0.538100
     21 C2         -18.7130     5.6190    26.8430 ca         1 QKR      -0.089000
     22 C9         -19.1100     7.7750    25.6300 ca         1 QKR      -0.090000
     23 C3         -17.8190     4.6510    27.2220 ca         1 QKR       0.321900
     24 H1         -14.9890     5.7740    26.0430 h4         1 QKR       0.024100
     25 H2         -15.2940     7.9280    24.8740 ha         1 QKR       0.119000
     26 H3         -16.8000     9.7270    24.0870 ha         1 QKR       0.119000
     27 H4         -19.2280     9.6090    24.5590 ha         1 QKR       0.119000
     28 H5         -22.2330     5.1840    33.0640 ha         1 QKR       0.141000
     29 H6         -22.2580     6.6030    31.0450 ha         1 QKR       0.147000
     30 H7         -22.0900     3.0820    28.5930 ha         1 QKR       0.139000
     31 H8         -20.5880     4.6820    26.7960 hn         1 QKR       0.173000
     32 H9         -20.1710     7.7340    25.8290 ha         1 QKR       0.125000
     33 H10        -18.1650     3.7920    27.7850 h4         1 QKR       0.024100
     34 N          -20.0870     5.4670    27.1860 ns         1 QKR      -0.152000
@<TRIPOS>BOND
     1     1     2 ar  
     2     1    23 ar  
     3     2     3 ar  
     4     2    24 1   
     5     3     4 ar  
     6     3     7 ar  
     7     4     5 ar  
     8     4    25 1   
     9     5     6 ar  
    10     5    26 1   
    11     6    22 ar  
    12     6    27 1   
    13     7    21 ar  
    14     7    22 ar  
    15     8    11 ar  
    16     8    13 ar  
    17     8    28 1   
    18     9    10 1   
    19     9    11 ar  
    20     9    14 ar  
    21    11    12 1   
    22    13    15 ar  
    23    13    29 1   
    24    14    15 ar  
    25    14    30 1   
    26    15    16 1   
    27    16    17 1   
    28    16    18 1   
    29    16    19 1   
    30    19    20 2   
    31    19    34 1   
    32    21    23 ar  
    33    21    34 1   
    34    22    32 1   
    35    23    33 1   
    36    31    34 1   
@<TRIPOS>SUBSTRUCTURE
     1 QKR         1 TEMP              0 ****  ****    0 ROOT
