@<TRIPOS>MOLECULE
QKR
   34    36     1     0     0
SMALL
No Charge or Current Charge


@<TRIPOS>ATOM
      1 N1         -16.3740     5.1090    27.6350 nb         1 QKR      -0.654000
      2 C4         -15.9850     5.9620    26.6600 ca         1 QKR       0.366900
      3 C5         -16.8830     6.7860    25.9540 ca         1 QKR      -0.093000
      4 C6         -16.4170     7.6360    24.9310 ca         1 QKR      -0.083000
      5 C7         -17.3220     8.4350    24.2150 ca         1 QKR      -0.105000
      6 C8         -18.6930     8.3790    24.5110 ca         1 QKR      -0.087000
      7 C10        -18.2590     6.7410    26.2750 ca         1 QKR      -0.001000
      8 C13        -21.7330     4.3170    31.9010 ca         1 QKR      -0.099000
      9 C15        -22.3180     2.6800    30.1980 ca         1 QKR       0.114000
     10 Cl1        -22.6170     1.0170    29.6930 cl         1 QKR      -0.167000
     11 C14        -21.9690     2.9840    31.5290 ca         1 QKR       0.142000
     12 Cl         -21.8180     1.7140    32.7450 cl         1 QKR      -0.164000
     13 C12        -21.8450     5.3480    30.9520 ca         1 QKR      -0.049000
     14 C16        -22.4300     3.7110    29.2480 ca         1 QKR      -0.067000
     15 C11        -22.1970     5.0570    29.6160 ca         1 QKR      -0.156300
     16 C          -22.2990     6.2010    28.5920 c3         1 QKR       0.152300
     17 F          -22.9310     5.8040    27.4610 f          1 QKR      -0.099500
     18 F1         -23.0610     7.2050    29.0940 f          1 QKR      -0.099500
     19 C1         -20.8830     6.7280    28.2260 c          1 QKR       0.566100
     20 O          -20.5460     7.9030    28.3560 o          1 QKR      -0.538100
     21 C2         -18.6670     5.8700    27.3170 ca         1 QKR      -0.089000
     22 C9         -19.1630     7.5350    25.5330 ca         1 QKR      -0.090000
     23 C3         -17.6890     5.0700    27.9440 ca         1 QKR       0.321900
     24 H1         -14.9200     5.9750    26.4310 h4         1 QKR       0.024100
     25 H2         -15.3570     7.6730    24.6880 ha         1 QKR       0.119000
     26 H3         -16.9620     9.0890    23.4230 ha         1 QKR       0.119000
     27 H4         -19.3950     8.9890    23.9470 ha         1 QKR       0.119000
     28 H5         -21.4620     4.5510    32.9270 ha         1 QKR       0.141000
     29 H6         -21.6570     6.3760    31.2610 ha         1 QKR       0.147000
     30 H7         -22.6990     3.4500    28.2270 ha         1 QKR       0.139000
     31 H8         -20.3850     4.8100    27.7560 hn         1 QKR       0.173000
     32 H9         -20.2310     7.5010    25.7250 ha         1 QKR       0.125000
     33 H10        -17.9700     4.3810    28.7400 h4         1 QKR       0.024100
     34 N          -20.0130     5.7530    27.7570 ns         1 QKR      -0.152000
@<TRIPOS>BOND
     1     1     2 ar  
     2     1    23 ar  
     3     2     3 ar  
     4     2    24 1   
     5     3     4 ar  
     6     3     7 ar  
     7     4     5 ar  
     8     4    25 1   
     9     5     6 ar  
    10     5    26 1   
    11     6    22 ar  
    12     6    27 1   
    13     7    21 ar  
    14     7    22 ar  
    15     8    11 ar  
    16     8    13 ar  
    17     8    28 1   
    18     9    10 1   
    19     9    11 ar  
    20     9    14 ar  
    21    11    12 1   
    22    13    15 ar  
    23    13    29 1   
    24    14    15 ar  
    25    14    30 1   
    26    15    16 1   
    27    16    17 1   
    28    16    18 1   
    29    16    19 1   
    30    19    20 2   
    31    19    34 1   
    32    21    23 ar  
    33    21    34 1   
    34    22    32 1   
    35    23    33 1   
    36    31    34 1   
@<TRIPOS>SUBSTRUCTURE
     1 QKR         1 TEMP              0 ****  ****    0 ROOT
