@<TRIPOS>MOLECULE
QKT
   56    58     1     0     0
SMALL
bcc


@<TRIPOS>ATOM
      1 C2          16.9550   -15.2970     9.0570 ca         1 QKT       0.078600
      2 C3          16.0660   -14.5150     9.7950 ca         1 QKT      -0.159000
      3 C4          15.9910   -14.6470    11.1730 ca         1 QKT      -0.104500
      4 C5          16.7930   -15.5670    11.8350 ca         1 QKT      -0.149000
      5 C11         17.7740   -16.2010     4.4130 c3         1 QKT       0.123400
      6 C12         19.2310   -15.8450     4.1660 c3         1 QKT       0.153100
      7 C17         21.2700   -18.2120     7.8460 ca         1 QKT       0.091600
      8 C18         21.3590   -17.8800     9.1990 ca         1 QKT      -0.163000
      9 C19         21.6580   -18.8460    10.1450 ca         1 QKT      -0.104500
     10 C20         21.8690   -20.1640     9.7600 ca         1 QKT      -0.155000
     11 C21         21.7880   -20.4920     8.4140 ca         1 QKT      -0.104500
     12 C22         21.5000   -19.5310     7.4540 ca         1 QKT      -0.163000
     13 C23         19.7600   -16.5080     2.8930 c3         1 QKT       0.161800
     14 C25         21.9580   -17.3670     2.1620 c6         1 QKT       0.179800
     15 C26         22.1980   -17.2580     0.6440 c6         1 QKT      -0.110400
     16 C27         21.1010   -16.4300    -0.0130 c6         1 QKT      -0.075400
     17 C28         21.0860   -15.0080     0.5640 c6         1 QKT      -0.110400
     18 C29         21.4830   -15.0190     2.0530 c6         1 QKT       0.179800
     19 C6          17.6810   -16.3400    11.1010 ca         1 QKT      -0.104500
     20 C7          17.7740   -16.2100     9.7220 ca         1 QKT      -0.159000
     21 C8          17.3520   -16.0040     6.7380 c          1 QKT       0.760100
     22 N1          17.0110   -15.0850     7.6740 ns         1 QKT      -0.470100
     23 N16         20.9860   -17.1770     6.9500 ns         1 QKT      -0.462100
     24 N24         21.1740   -16.2710     2.7160 n3         1 QKT      -0.739600
     25 O10         17.2580   -15.4630     5.5190 os         1 QKT      -0.435900
     26 O13         20.0290   -16.0580     5.3310 os         1 QKT      -0.429900
     27 O15         20.0320   -18.3180     5.2140 o          1 QKT      -0.571000
     28 O9          17.6780   -17.1470     6.9620 o          1 QKT      -0.560000
     29 H1          15.4290   -13.8010     9.2870 ha         1 QKT       0.144500
     30 H2          15.2950   -14.0320    11.7280 ha         1 QKT       0.132500
     31 H3          16.7300   -15.6770    12.9090 ha         1 QKT       0.133000
     32 H4          17.1890   -15.8890     3.5480 h1         1 QKT       0.081200
     33 H5          17.6290   -17.2730     4.5510 h1         1 QKT       0.081200
     34 H6          19.2910   -14.7610     4.0420 h1         1 QKT       0.080700
     35 H7          21.1870   -16.8560     9.5140 ha         1 QKT       0.143000
     36 H8          21.7200   -18.5660    11.1890 ha         1 QKT       0.128500
     37 H9          22.0970   -20.9220    10.4970 ha         1 QKT       0.131000
     38 H10         21.9630   -21.5120     8.0970 ha         1 QKT       0.128500
     39 H11         21.4640   -19.8150     6.4150 ha         1 QKT       0.143000
     40 H12         19.1440   -16.1190     2.0680 h1         1 QKT       0.051200
     41 H13         19.5730   -17.5780     2.9280 h1         1 QKT       0.051200
     42 H14         21.4510   -18.3030     2.3990 h1         1 QKT       0.052200
     43 H15         22.2520   -18.2560     0.2060 hc         1 QKT       0.042450
     44 H16         20.1330   -16.9120     0.1540 hc         1 QKT       0.038700
     45 H17         21.2350   -16.3980    -1.0960 hc         1 QKT       0.038700
     46 H18         21.7900   -14.3750     0.0170 hc         1 QKT       0.042450
     47 H19         20.1000   -14.5610     0.4220 hc         1 QKT       0.042450
     48 H20         22.5610   -14.8520     2.1470 h1         1 QKT       0.052200
     49 H21         21.0090   -14.1910     2.5830 h1         1 QKT       0.052200
     50 H22         18.3200   -17.0550    11.6040 ha         1 QKT       0.132500
     51 H23         18.4860   -16.8120     9.1790 ha         1 QKT       0.144500
     52 H24         16.6530   -14.2020     7.3410 hn         1 QKT       0.331500
     53 H25         21.0730   -16.2440     7.3250 hn         1 QKT       0.325500
     54 H26         22.9240   -17.4110     2.6790 h1         1 QKT       0.052200
     55 H27         23.1660   -16.7870     0.4470 hc         1 QKT       0.042450
     56 C14         20.3120   -17.2850     5.7710 c          1 QKT       0.782100
@<TRIPOS>BOND
     1     1     2 ar  
     2     1    20 ar  
     3     1    22 1   
     4     2     3 ar  
     5     2    29 1   
     6     3     4 ar  
     7     3    30 1   
     8     4    19 ar  
     9     4    31 1   
    10     5     6 1   
    11     5    25 1   
    12     5    32 1   
    13     5    33 1   
    14     6    13 1   
    15     6    26 1   
    16     6    34 1   
    17     7     8 ar  
    18     7    12 ar  
    19     7    23 1   
    20     8     9 ar  
    21     8    35 1   
    22     9    10 ar  
    23     9    36 1   
    24    10    11 ar  
    25    10    37 1   
    26    11    12 ar  
    27    11    38 1   
    28    12    39 1   
    29    13    24 1   
    30    13    40 1   
    31    13    41 1   
    32    14    15 1   
    33    14    24 1   
    34    14    42 1   
    35    14    54 1   
    36    15    16 1   
    37    15    43 1   
    38    15    55 1   
    39    16    17 1   
    40    16    44 1   
    41    16    45 1   
    42    17    18 1   
    43    17    46 1   
    44    17    47 1   
    45    18    24 1   
    46    18    48 1   
    47    18    49 1   
    48    19    20 ar  
    49    19    50 1   
    50    20    51 1   
    51    21    22 1   
    52    21    25 1   
    53    21    28 2   
    54    22    52 1   
    55    23    53 1   
    56    23    56 1   
    57    26    56 1   
    58    27    56 2   
@<TRIPOS>SUBSTRUCTURE
     1 QKT         1 TEMP              0 ****  ****    0 ROOT
