@<TRIPOS>MOLECULE
QKT
   56    58     1     0     0
SMALL
No Charge or Current Charge


@<TRIPOS>ATOM
      1 C2          16.3980   -14.9370     8.8470 ca         1 QKT      -0.014000
      2 C3          15.6680   -13.7920     9.2200 ca         1 QKT      -0.141000
      3 C4          15.4800   -13.4720    10.5760 ca         1 QKT      -0.086500
      4 C5          16.0260   -14.2950    11.5730 ca         1 QKT      -0.131000
      5 C11         17.6980   -16.8780     4.4860 c3         1 QKT       0.146600
      6 C12         19.1640   -16.3940     4.2680 c3         1 QKT       0.176300
      7 C17         21.7100   -18.7870     7.8070 ca         1 QKT      -0.001000
      8 C18         22.4900   -18.3370     8.8910 ca         1 QKT      -0.145000
      9 C19         23.1150   -19.2540     9.7540 ca         1 QKT      -0.086500
     10 C20         22.9640   -20.6330     9.5410 ca         1 QKT      -0.137000
     11 C21         22.1900   -21.0930     8.4650 ca         1 QKT      -0.086500
     12 C22         21.5650   -20.1770     7.6000 ca         1 QKT      -0.145000
     13 C23         19.8350   -17.0030     2.9930 c3         1 QKT       0.161800
     14 C25         21.9270   -17.4530     1.6750 c6         1 QKT       0.179800
     15 C26         22.0470   -16.6230     0.3590 c6         1 QKT      -0.110400
     16 C27         21.0160   -15.4730     0.2710 c6         1 QKT      -0.075400
     17 C28         21.0910   -14.5500     1.5200 c6         1 QKT      -0.110400
     18 C29         21.6530   -15.2670     2.7820 c6         1 QKT       0.179800
     19 C6          16.7590   -15.4370    11.2140 ca         1 QKT      -0.086500
     20 C7          16.9460   -15.7590     9.8570 ca         1 QKT      -0.141000
     21 C8          17.1320   -16.2480     6.7700 c          1 QKT       0.644100
     22 N1          16.5520   -15.1990     7.4580 ns         1 QKT      -0.144000
     23 N16         21.1090   -17.8040     6.9760 ns         1 QKT      -0.136000
     24 N24         21.2940   -16.7140     2.8130 n3         1 QKT      -0.739600
     25 O10         17.0290   -16.0020     5.4250 os         1 QKT      -0.459100
     26 O13         19.9840   -16.6260     5.4490 os         1 QKT      -0.453100
     27 O15         19.8970   -18.9330     5.3450 o          1 QKT      -0.522000
     28 O9          17.6390   -17.2460     7.2630 o          1 QKT      -0.511000
     29 H1          15.2410   -13.1460     8.4560 ha         1 QKT       0.126500
     30 H2          14.9130   -12.5850    10.8520 ha         1 QKT       0.114500
     31 H3          15.8820   -14.0480    12.6230 ha         1 QKT       0.115000
     32 H4          17.1840   -16.8190     3.5170 h1         1 QKT       0.081200
     33 H5          17.6570   -17.9290     4.7980 h1         1 QKT       0.081200
     34 H6          19.1050   -15.3110     4.0960 h1         1 QKT       0.080700
     35 H7          22.6140   -17.2710     9.0670 ha         1 QKT       0.125000
     36 H8          23.7150   -18.8940    10.5880 ha         1 QKT       0.110500
     37 H9          23.4470   -21.3430    10.2090 ha         1 QKT       0.113000
     38 H10         22.0730   -22.1620     8.2990 ha         1 QKT       0.110500
     39 H11         20.9740   -20.5680     6.7790 ha         1 QKT       0.125000
     40 H12         19.2680   -16.6440     2.1250 h1         1 QKT       0.051200
     41 H13         19.6820   -18.0900     3.0110 h1         1 QKT       0.051200
     42 H14         21.3640   -18.3750     1.4640 h1         1 QKT       0.052200
     43 H15         21.9520   -17.2870    -0.5100 hc         1 QKT       0.042450
     44 H16         20.0070   -15.8950     0.1740 hc         1 QKT       0.038700
     45 H17         21.1840   -14.8830    -0.6410 hc         1 QKT       0.038700
     46 H18         21.7210   -13.6770     1.3020 hc         1 QKT       0.042450
     47 H19         20.0890   -14.1530     1.7350 hc         1 QKT       0.042450
     48 H20         22.7490   -15.1710     2.7730 h1         1 QKT       0.052200
     49 H21         21.3120   -14.7450     3.6880 h1         1 QKT       0.052200
     50 H22         17.1840   -16.0740    11.9860 ha         1 QKT       0.114500
     51 H23         17.5240   -16.6450     9.6160 ha         1 QKT       0.126500
     52 H24         16.1720   -14.4820     6.8560 hn         1 QKT       0.165000
     53 H25         21.3130   -16.8520     7.2470 hn         1 QKT       0.159000
     54 H26         22.9380   -17.7790     1.9610 h1         1 QKT       0.052200
     55 H27         23.0570   -16.1940     0.3030 hc         1 QKT       0.042450
     56 C14         20.2910   -17.8980     5.8660 c          1 QKT       0.666100
@<TRIPOS>BOND
     1     1     2 ar  
     2     1    20 ar  
     3     1    22 1   
     4     2     3 ar  
     5     2    29 1   
     6     3     4 ar  
     7     3    30 1   
     8     4    19 ar  
     9     4    31 1   
    10     5     6 1   
    11     5    25 1   
    12     5    32 1   
    13     5    33 1   
    14     6    13 1   
    15     6    26 1   
    16     6    34 1   
    17     7     8 ar  
    18     7    12 ar  
    19     7    23 1   
    20     8     9 ar  
    21     8    35 1   
    22     9    10 ar  
    23     9    36 1   
    24    10    11 ar  
    25    10    37 1   
    26    11    12 ar  
    27    11    38 1   
    28    12    39 1   
    29    13    24 1   
    30    13    40 1   
    31    13    41 1   
    32    14    15 1   
    33    14    24 1   
    34    14    42 1   
    35    14    54 1   
    36    15    16 1   
    37    15    43 1   
    38    15    55 1   
    39    16    17 1   
    40    16    44 1   
    41    16    45 1   
    42    17    18 1   
    43    17    46 1   
    44    17    47 1   
    45    18    24 1   
    46    18    48 1   
    47    18    49 1   
    48    19    20 ar  
    49    19    50 1   
    50    20    51 1   
    51    21    22 1   
    52    21    25 1   
    53    21    28 2   
    54    22    52 1   
    55    23    53 1   
    56    23    56 1   
    57    26    56 1   
    58    27    56 2   
@<TRIPOS>SUBSTRUCTURE
     1 QKT         1 TEMP              0 ****  ****    0 ROOT
