@<TRIPOS>MOLECULE
QKU
   28    29     1     0     0
SMALL
No Charge or Current Charge


@<TRIPOS>ATOM
      1 C           -4.0630    -0.5470    -0.6450 c          1 QKU       0.713600
      2 O           -3.9290    -1.7300    -0.9240 o          1 QKU      -0.720000
      3 C1          -2.8280     0.2570    -0.2660 ca         1 QKU      -0.139600
      4 C10          3.4010    -0.1660    -0.2920 ca         1 QKU      -0.101300
      5 C11          4.6300     0.6210    -0.7310 c3         1 QKU       0.210900
      6 C12          2.1300     0.4410    -0.2950 ca         1 QKU      -0.095000
      7 C13         -1.5470    -0.3450    -0.2540 ca         1 QKU      -0.068000
      8 C2          -2.9340     1.6240     0.0780 ca         1 QKU      -0.076000
      9 C3          -1.7910     2.3630     0.4230 ca         1 QKU      -0.152000
     10 C4          -0.5290     1.7510     0.4290 ca         1 QKU      -0.121000
     11 C5          -0.3800     0.3840     0.0920 cp         1 QKU      -0.091000
     12 C6           0.9680    -0.2710     0.1000 cp         1 QKU       0.003000
     13 C7           1.1250    -1.6210     0.5020 ca         1 QKU      -0.094000
     14 C8           2.3890    -2.2330     0.5100 ca         1 QKU      -0.122000
     15 C9           3.5250    -1.5080     0.1140 ca         1 QKU      -0.105000
     16 O1           5.1970     1.3200     0.3810 oh         1 QKU      -0.655000
     17 O2          -5.1480     0.0170    -0.6560 o          1 QKU      -0.720000
     18 H6           5.3680    -0.0690    -1.1630 h1         1 QKU       0.018200
     19 H7           4.3430     1.3300    -1.5190 h1         1 QKU       0.018200
     20 H9           2.0400     1.4740    -0.6190 ha         1 QKU       0.110000
     21 H10         -1.4500    -1.3920    -0.5310 ha         1 QKU       0.130000
     22 H           -3.9030     2.1190     0.0790 ha         1 QKU       0.127000
     23 H1          -1.8860     3.4130     0.6880 ha         1 QKU       0.087000
     24 H2           0.3390     2.3410     0.7130 ha         1 QKU       0.087000
     25 H3           0.2610    -2.1960     0.8260 ha         1 QKU       0.127000
     26 H4           2.4900    -3.2690     0.8260 ha         1 QKU       0.102000
     27 H5           4.5010    -1.9890     0.1230 ha         1 QKU       0.100000
     28 H8           5.9800     1.8030     0.0380 ho         1 QKU       0.428000
@<TRIPOS>BOND
     1     1     2 1   
     2     1     3 1   
     3     1    17 1   
     4     3     7 ar  
     5     3     8 ar  
     6     4     5 1   
     7     4     6 ar  
     8     4    15 ar  
     9     5    16 1   
    10     5    18 1   
    11     5    19 1   
    12     6    12 ar  
    13     6    20 1   
    14     7    11 ar  
    15     7    21 1   
    16     8     9 ar  
    17     8    22 1   
    18     9    10 ar  
    19     9    23 1   
    20    10    11 ar  
    21    10    24 1   
    22    11    12 1   
    23    12    13 ar  
    24    13    14 ar  
    25    13    25 1   
    26    14    15 ar  
    27    14    26 1   
    28    15    27 1   
    29    16    28 1   
@<TRIPOS>SUBSTRUCTURE
     1 QKU         1 TEMP              0 ****  ****    0 ROOT
