@<TRIPOS>MOLECULE
QKU
   28    29     1     0     0
SMALL
abcg2


@<TRIPOS>ATOM
      1 C           -3.9900    -0.5850    -0.7160 c          1 QKU       0.713600
      2 O           -3.7760    -1.7720    -1.0260 o          1 QKU      -0.720000
      3 C1          -2.7780     0.2390    -0.2940 ca         1 QKU      -0.139600
      4 C10          3.3450    -0.1070    -0.3070 ca         1 QKU      -0.101300
      5 C11          4.5450     0.6650    -0.7770 c3         1 QKU       0.210900
      6 C12          2.0810     0.4680    -0.3180 ca         1 QKU      -0.095000
      7 C13         -1.5100    -0.3320    -0.2730 ca         1 QKU      -0.068000
      8 C2          -2.9140     1.5760     0.0690 ca         1 QKU      -0.076000
      9 C3          -1.8030     2.3200     0.4420 ca         1 QKU      -0.152000
     10 C4          -0.5440     1.7380     0.4560 ca         1 QKU      -0.121000
     11 C5          -0.3820     0.3990     0.0990 cp         1 QKU      -0.091000
     12 C6           0.9540    -0.2330     0.1180 cp         1 QKU       0.003000
     13 C7           1.1220    -1.5380     0.5760 ca         1 QKU      -0.094000
     14 C8           2.3820    -2.1200     0.5990 ca         1 QKU      -0.122000
     15 C9           3.4900    -1.4110     0.1630 ca         1 QKU      -0.105000
     16 O1           5.3770     0.9190     0.3360 oh         1 QKU      -0.655000
     17 O2          -5.0900    -0.0000    -0.7130 o          1 QKU      -0.720000
     18 H6           5.0730     0.0820    -1.5410 h1         1 QKU       0.018200
     19 H7           4.2150     1.5940    -1.2580 h1         1 QKU       0.018200
     20 H9           1.9670     1.4790    -0.6920 ha         1 QKU       0.110000
     21 H10         -1.4030    -1.3680    -0.5700 ha         1 QKU       0.130000
     22 H           -3.8940     2.0340     0.0620 ha         1 QKU       0.127000
     23 H1          -1.9180     3.3570     0.7300 ha         1 QKU       0.087000
     24 H2           0.3130     2.3240     0.7670 ha         1 QKU       0.087000
     25 H3           0.2680    -2.0990     0.9370 ha         1 QKU       0.127000
     26 H4           2.4990    -3.1320     0.9650 ha         1 QKU       0.102000
     27 H5           4.4680    -1.8750     0.1820 ha         1 QKU       0.100000
     28 H8           6.1980     1.3000     0.0100 ho         1 QKU       0.428000
@<TRIPOS>BOND
     1     1     2 1   
     2     1     3 1   
     3     1    17 1   
     4     3     7 ar  
     5     3     8 ar  
     6     4     5 1   
     7     4     6 ar  
     8     4    15 ar  
     9     5    16 1   
    10     5    18 1   
    11     5    19 1   
    12     6    12 ar  
    13     6    20 1   
    14     7    11 ar  
    15     7    21 1   
    16     8     9 ar  
    17     8    22 1   
    18     9    10 ar  
    19     9    23 1   
    20    10    11 ar  
    21    10    24 1   
    22    11    12 1   
    23    12    13 ar  
    24    13    14 ar  
    25    13    25 1   
    26    14    15 ar  
    27    14    26 1   
    28    15    27 1   
    29    16    28 1   
@<TRIPOS>SUBSTRUCTURE
     1 QKU         1 TEMP              0 ****  ****    0 ROOT
