@<TRIPOS>MOLECULE
QKV
   34    36     1     0     0
SMALL
No Charge or Current Charge


@<TRIPOS>ATOM
      1 N1          -4.6710     0.4620     0.4530 n3         1 QKV      -0.748600
      2 C4           0.4100    -1.0820     0.0380 ca         1 QKV       0.161100
      3 C5          -2.2560     0.3140     1.0720 c6         1 QKV      -0.092900
      4 C6          -3.2110    -1.2670    -0.6280 c6         1 QKV      -0.092900
      5 C8          -4.4090    -0.3080    -0.8000 c6         1 QKV       0.173300
      6 C10         -0.2950     1.0720    -1.1100 c6         1 QKV       0.208900
      7 C13          1.3910    -1.9420     0.5560 ca         1 QKV      -0.140000
      8 C15          2.7440    -1.5630     0.5290 ca         1 QKV      -0.049000
      9 C14          3.1110    -0.3240    -0.0240 ca         1 QKV      -0.052900
     10 C3           0.7760     0.1540    -0.5280 ca         1 QKV      -0.203300
     11 C11          2.1320     0.5340    -0.5540 ca         1 QKV      -0.041000
     12 O1          -0.9060    -1.4760     0.0650 os         1 QKV      -0.353100
     13 C2          -1.9360    -0.5070    -0.2070 c6         1 QKV       0.396000
     14 O2          -1.5150     0.3280    -1.3110 os         1 QKV      -0.456000
     15 C9          -3.4690     1.2410     0.8520 c6         1 QKV       0.173300
     16 C1          -5.8520     1.3150     0.3600 c3         1 QKV       0.403800
     17 O3          -6.9220     0.4120     0.4470 oh         1 QKV      -0.643000
     18 H5          -2.4790    -0.3750     1.8970 hc         1 QKV       0.070950
     19 H5A         -1.3890     0.9010     1.3990 hc         1 QKV       0.070950
     20 H6          -3.4570    -2.0260     0.1260 hc         1 QKV       0.070950
     21 H6A         -3.0300    -1.8050    -1.5670 hc         1 QKV       0.070950
     22 H8          -5.2880    -0.9040    -1.0850 h1         1 QKV       0.038200
     23 H8A         -4.2050     0.3790    -1.6350 h1         1 QKV       0.038200
     24 H10         -0.4810     1.9170    -0.4320 h1         1 QKV       0.060200
     25 H10A         0.0360     1.4790    -2.0770 h1         1 QKV       0.060200
     26 H13          1.1010    -2.8990     0.9820 ha         1 QKV       0.134000
     27 H15          3.5050    -2.2270     0.9350 ha         1 QKV       0.132000
     28 H11          2.4260     1.4890    -0.9860 ha         1 QKV       0.128000
     29 H9          -3.2230     1.9910     0.0850 h1         1 QKV       0.038200
     30 H9A         -3.6650     1.7870     1.7870 h1         1 QKV       0.038200
     31 H1          -5.8990     2.0050     1.2130 h2         1 QKV       0.030200
     32 H1A         -5.8830     1.8720    -0.5840 h2         1 QKV       0.030200
     33 HO3         -6.4840    -0.3610     0.8590 ho         1 QKV       0.441000
     34 Br1          4.9510     0.1940    -0.0620 br         1 QKV      -0.097100
@<TRIPOS>BOND
     1     1     5 1   
     2     1    15 1   
     3     1    16 1   
     4     2     7 ar  
     5     2    10 ar  
     6     2    12 1   
     7     3    13 1   
     8     3    15 1   
     9     3    18 1   
    10     3    19 1   
    11     4     5 1   
    12     4    13 1   
    13     4    20 1   
    14     4    21 1   
    15     5    22 1   
    16     5    23 1   
    17     6    10 1   
    18     6    14 1   
    19     6    24 1   
    20     6    25 1   
    21     7     8 ar  
    22     7    26 1   
    23     8     9 ar  
    24     8    27 1   
    25     9    11 ar  
    26     9    34 1   
    27    10    11 ar  
    28    11    28 1   
    29    12    13 1   
    30    13    14 1   
    31    15    29 1   
    32    15    30 1   
    33    16    17 1   
    34    16    31 1   
    35    16    32 1   
    36    17    33 1   
@<TRIPOS>SUBSTRUCTURE
     1 QKV         1 TEMP              0 ****  ****    0 ROOT
