@<TRIPOS>MOLECULE
QKV
   34    36     1     0     0
SMALL
bcc


@<TRIPOS>ATOM
      1 N1          -4.5140     0.3950     0.5530 n3         1 QKV      -0.748600
      2 C4           0.3800    -1.0900     0.0090 ca         1 QKV       0.161100
      3 C5          -2.1170     0.2610     1.0100 c6         1 QKV      -0.092900
      4 C6          -3.1780    -1.3350    -0.5660 c6         1 QKV      -0.092900
      5 C8          -4.3610    -0.3810    -0.6660 c6         1 QKV       0.173300
      6 C10         -0.3830     0.9380    -1.2220 c6         1 QKV       0.185700
      7 C13          1.3680    -1.8710     0.6010 ca         1 QKV      -0.158000
      8 C15          2.6780    -1.4250     0.6360 ca         1 QKV      -0.067000
      9 C14          2.9910    -0.1910     0.0790 ca         1 QKV      -0.052900
     10 C3           0.7020     0.1370    -0.5640 ca         1 QKV      -0.203300
     11 C11          2.0150     0.5870    -0.5190 ca         1 QKV      -0.059000
     12 O1          -0.8860    -1.5600    -0.0040 os         1 QKV      -0.329900
     13 C2          -1.8980    -0.5870    -0.2420 c6         1 QKV       0.349600
     14 O2          -1.5580     0.1690    -1.3660 os         1 QKV      -0.409600
     15 C9          -3.3210     1.1730     0.8330 c6         1 QKV       0.173300
     16 C1          -5.6860     1.2390     0.5180 c3         1 QKV       0.380600
     17 O3          -6.8700     0.4940     0.5740 oh         1 QKV      -0.580800
     18 H5          -2.3030    -0.4170     1.8460 hc         1 QKV       0.070950
     19 H5A         -1.2380     0.8530     1.2780 hc         1 QKV       0.070950
     20 H6          -3.3650    -2.0650     0.2230 hc         1 QKV       0.070950
     21 H6A         -3.0660    -1.8850    -1.5030 hc         1 QKV       0.070950
     22 H8          -5.2620    -0.9740    -0.8310 h1         1 QKV       0.038200
     23 H8A         -4.2430     0.2730    -1.5450 h1         1 QKV       0.038200
     24 H10         -0.5750     1.8640    -0.6650 h1         1 QKV       0.060200
     25 H10A        -0.0800     1.2310    -2.2290 h1         1 QKV       0.060200
     26 H13          1.1080    -2.8270     1.0380 ha         1 QKV       0.152000
     27 H15          3.4370    -2.0380     1.1020 ha         1 QKV       0.150000
     28 H11          2.2630     1.5440    -0.9640 ha         1 QKV       0.146000
     29 H9          -3.1180     1.9150     0.0420 h1         1 QKV       0.038200
     30 H9A         -3.4750     1.7400     1.7540 h1         1 QKV       0.038200
     31 H1          -5.6490     1.8830     1.4010 h2         1 QKV       0.030200
     32 H1A         -5.6830     1.8950    -0.3700 h2         1 QKV       0.030200
     33 HO3         -7.2320     0.4070    -0.3110 ho         1 QKV       0.402000
     34 BR1          4.7750     0.4290     0.1340 br         1 QKV      -0.097100
@<TRIPOS>BOND
     1     1     5 1   
     2     1    15 1   
     3     1    16 1   
     4     2     7 ar  
     5     2    10 ar  
     6     2    12 1   
     7     3    13 1   
     8     3    15 1   
     9     3    18 1   
    10     3    19 1   
    11     4     5 1   
    12     4    13 1   
    13     4    20 1   
    14     4    21 1   
    15     5    22 1   
    16     5    23 1   
    17     6    10 1   
    18     6    14 1   
    19     6    24 1   
    20     6    25 1   
    21     7     8 ar  
    22     7    26 1   
    23     8     9 ar  
    24     8    27 1   
    25     9    11 ar  
    26     9    34 1   
    27    10    11 ar  
    28    11    28 1   
    29    12    13 1   
    30    13    14 1   
    31    15    29 1   
    32    15    30 1   
    33    16    17 1   
    34    16    31 1   
    35    16    32 1   
    36    17    33 1   
@<TRIPOS>SUBSTRUCTURE
     1 QKV         1 TEMP              0 ****  ****    0 ROOT
