@<TRIPOS>MOLECULE
QKW
   27    28     1     0     0
SMALL
bcc


@<TRIPOS>ATOM
      1 N1         -10.2460     9.6750   -96.4690 nb         1 QKW      -0.677000
      2 C4          -4.9760     7.6460   -94.0010 ca         1 QKW      -0.129300
      3 C5          -5.0210     8.7100   -95.0590 c3         1 QKW       0.193700
      4 C6          -6.8860     8.0060   -96.3270 c          1 QKW       0.663700
      5 C7          -8.2930     8.3090   -96.6830 ca         1 QKW      -0.264900
      6 C8          -8.9640     7.4670   -97.5650 ca         1 QKW      -0.037000
      7 C10        -10.8730     8.8650   -97.3140 ca         1 QKW       0.428200
      8 C13         -4.1330     5.5360   -93.1760 ca         1 QKW      -0.127000
      9 C1          -4.8840     5.7020   -92.0240 ca         1 QKW       0.039400
     10 C2          -5.6810     6.8220   -91.8410 ca         1 QKW      -0.127000
     11 C3          -5.7190     7.7900   -92.8310 ca         1 QKW      -0.092000
     12 O1          -6.3560     8.9250   -95.5330 os         1 QKW      -0.416900
     13 O2          -6.2930     7.0340   -96.7230 o          1 QKW      -0.530000
     14 C9         -10.2770     7.7500   -97.8880 ca         1 QKW      -0.262300
     15 C11         -8.9850     9.4020   -96.1630 ca         1 QKW       0.455200
     16 C12         -4.1920     6.5110   -94.1620 ca         1 QKW      -0.092000
     17 H1          -4.3510     8.4720   -95.8860 h1         1 QKW       0.069200
     18 H2          -4.7230     9.6750   -94.6510 h1         1 QKW       0.069200
     19 H3          -8.4650     6.6070   -97.9900 ha         1 QKW       0.159000
     20 H4         -11.9020     9.1120   -97.5470 h4         1 QKW       0.022100
     21 H5          -3.5160     4.6580   -93.3100 ha         1 QKW       0.149500
     22 H6          -6.2610     6.9420   -90.9350 ha         1 QKW       0.149500
     23 H7          -6.3360     8.6670   -92.6810 ha         1 QKW       0.141000
     24 H8         -10.8350     7.1250   -98.5710 ha         1 QKW       0.148000
     25 H9          -8.5060    10.0830   -95.4710 h4         1 QKW       0.035100
     26 H10         -3.6140     6.3780   -95.0680 ha         1 QKW       0.141000
     27 CL1         -4.8260     4.4880   -90.7870 cl         1 QKW      -0.110400
@<TRIPOS>BOND
     1     1     7 ar  
     2     1    15 ar  
     3     2     3 1   
     4     2    11 ar  
     5     2    16 ar  
     6     3    12 1   
     7     3    17 1   
     8     3    18 1   
     9     4     5 1   
    10     4    12 1   
    11     4    13 2   
    12     5     6 ar  
    13     5    15 ar  
    14     6    14 ar  
    15     6    19 1   
    16     7    14 ar  
    17     7    20 1   
    18     8     9 ar  
    19     8    16 ar  
    20     8    21 1   
    21     9    10 ar  
    22     9    27 1   
    23    10    11 ar  
    24    10    22 1   
    25    11    23 1   
    26    14    24 1   
    27    15    25 1   
    28    16    26 1   
@<TRIPOS>SUBSTRUCTURE
     1 QKW         1 TEMP              0 ****  ****    0 ROOT
