@<TRIPOS>MOLECULE
QKW
   27    28     1     0     0
SMALL
No Charge or Current Charge


@<TRIPOS>ATOM
      1 N1         -10.2620     9.6720   -96.4890 nb         1 QKW      -0.677000
      2 C4          -4.9540     7.6970   -93.9770 ca         1 QKW      -0.129300
      3 C5          -4.9740     8.8030   -95.0290 c3         1 QKW       0.216900
      4 C6          -6.8520     8.0250   -96.3440 c          1 QKW       0.614700
      5 C7          -8.2820     8.2810   -96.7100 ca         1 QKW      -0.199600
      6 C8          -8.9730     7.4100   -97.5780 ca         1 QKW      -0.019000
      7 C10        -10.9160     8.8320   -97.3230 ca         1 QKW       0.362900
      8 C13         -4.2050     5.5000   -93.2210 ca         1 QKW      -0.109000
      9 C1          -4.9270     5.6620   -92.0280 ca         1 QKW       0.131000
     10 C2          -5.6620     6.8360   -91.8040 ca         1 QKW      -0.109000
     11 C3          -5.6760     7.8530   -92.7760 ca         1 QKW      -0.074000
     12 O1          -6.3200     8.9750   -95.5110 os         1 QKW      -0.440100
     13 O2          -6.2270     7.0610   -96.7670 o          1 QKW      -0.481000
     14 C9         -10.3120     7.6970   -97.8850 ca         1 QKW      -0.179000
     15 C11         -8.9690     9.3950   -96.1920 ca         1 QKW       0.389900
     16 C12         -4.2170     6.5150   -94.1940 ca         1 QKW      -0.074000
     17 H1          -4.2840     8.5710   -95.8520 h1         1 QKW       0.069200
     18 H2          -4.6220     9.7320   -94.5630 h1         1 QKW       0.069200
     19 H3          -8.4870     6.5340   -98.0040 ha         1 QKW       0.141000
     20 H4         -11.9540     9.0770   -97.5450 h4         1 QKW       0.022100
     21 H5          -3.6370     4.5880   -93.3920 ha         1 QKW       0.131500
     22 H6          -6.2210     6.9590   -90.8800 ha         1 QKW       0.131500
     23 H7          -6.2490     8.7600   -92.5980 ha         1 QKW       0.123000
     24 H8         -10.8800     7.0530   -98.5490 ha         1 QKW       0.130000
     25 H9          -8.4850    10.0990   -95.5160 h4         1 QKW       0.035100
     26 H10         -3.6570     6.3790   -95.1170 ha         1 QKW       0.123000
     27 Cl1         -4.9110     4.3910   -90.8120 cl         1 QKW      -0.202000
@<TRIPOS>BOND
     1     1     7 ar  
     2     1    15 ar  
     3     2     3 1   
     4     2    11 ar  
     5     2    16 ar  
     6     3    12 1   
     7     3    17 1   
     8     3    18 1   
     9     4     5 1   
    10     4    12 1   
    11     4    13 2   
    12     5     6 ar  
    13     5    15 ar  
    14     6    14 ar  
    15     6    19 1   
    16     7    14 ar  
    17     7    20 1   
    18     8     9 ar  
    19     8    16 ar  
    20     8    21 1   
    21     9    10 ar  
    22     9    27 1   
    23    10    11 ar  
    24    10    22 1   
    25    11    23 1   
    26    14    24 1   
    27    15    25 1   
    28    16    26 1   
@<TRIPOS>SUBSTRUCTURE
     1 QKW         1 TEMP              0 ****  ****    0 ROOT
