@<TRIPOS>MOLECULE
QKX
   48    51     1     0     0
SMALL
abcg2


@<TRIPOS>ATOM
      1 C02        -43.2200   -30.0080     3.7290 c          1 QKX       0.723000
      2 C03        -43.7050   -29.1940     2.4900 c5         1 QKX      -0.203700
      3 C04        -42.9390   -29.5710     1.2050 c5         1 QKX      -0.019100
      4 C05        -43.7620   -30.7040     0.6440 ca         1 QKX      -0.060300
      5 C06        -45.0560   -30.6540     1.1630 ca         1 QKX      -0.082300
      6 C07        -46.0060   -31.6000     0.8150 ca         1 QKX      -0.082000
      7 C08        -45.6450   -32.6160    -0.0730 ca         1 QKX      -0.134000
      8 C09        -44.3560   -32.6680    -0.5990 ca         1 QKX      -0.128000
      9 C10        -43.4050   -31.7100    -0.2420 ca         1 QKX      -0.108000
     10 C11        -45.1840   -29.4470     2.0720 c5         1 QKX       0.164000
     11 C14        -48.1690   -29.2730     4.3870 ca         1 QKX      -0.156600
     12 C15        -49.5620   -29.2210     4.3360 ca         1 QKX      -0.042500
     13 C16        -50.3410   -29.2530     5.4830 ca         1 QKX      -0.174000
     14 C17        -49.7260   -29.3290     6.7390 ca         1 QKX      -0.007000
     15 C18        -48.3250   -29.3750     6.7990 ca         1 QKX      -0.174000
     16 C19        -47.5630   -29.3500     5.6460 ca         1 QKX      -0.042500
     17 C21        -51.7710   -29.2960     8.1870 c          1 QKX       0.661100
     18 C23        -53.4540   -29.1710     9.9490 cx         1 QKX       0.069700
     19 C24        -54.3040   -30.4100    10.0080 cx         1 QKX      -0.137900
     20 C25        -53.7940   -29.7770    11.2760 cx         1 QKX      -0.137900
     21 N12        -46.1030   -29.5690     3.1780 ns         1 QKX      -0.482900
     22 N20        -50.4100   -29.3560     7.9540 ns         1 QKX      -0.162000
     23 N22        -52.0960   -29.2750     9.5110 ns         1 QKX      -0.511900
     24 O01        -44.0070   -30.0710     4.7210 o          1 QKX      -0.725000
     25 O26        -52.6180   -29.2750     7.2970 o          1 QKX      -0.620100
     26 O27        -47.9410   -28.8840     2.0450 o          1 QKX      -0.668100
     27 O28        -42.0730   -30.5000     3.6920 o          1 QKX      -0.725000
     28 H031       -43.5650   -28.1420     2.7510 hc         1 QKX       0.046700
     29 H042       -42.9360   -28.7260     0.5070 hc         1 QKX       0.050700
     30 H041       -41.9070   -29.8470     1.4090 hc         1 QKX       0.050700
     31 H071       -47.0070   -31.5580     1.2260 ha         1 QKX       0.119000
     32 H081       -46.3710   -33.3700    -0.3520 ha         1 QKX       0.093000
     33 H091       -44.0880   -33.4630    -1.2840 ha         1 QKX       0.090000
     34 H101       -42.3990   -31.7630    -0.6440 ha         1 QKX       0.101000
     35 H111       -45.5130   -28.6010     1.4600 h1         1 QKX       0.052700
     36 H151       -50.0440   -29.1550     3.3700 ha         1 QKX       0.143500
     37 H161       -51.4150   -29.2200     5.4140 ha         1 QKX       0.123500
     38 H181       -47.8370   -29.4240     7.7650 ha         1 QKX       0.123500
     39 H191       -46.4860   -29.3700     5.7440 ha         1 QKX       0.143500
     40 H231       -53.9520   -28.2460     9.6810 h1         1 QKX       0.085700
     41 H242       -55.3540   -30.3100     9.7660 hc         1 QKX       0.076200
     42 H241       -53.8410   -31.3330     9.6880 hc         1 QKX       0.076200
     43 H251       -54.4910   -29.2430    11.9070 hc         1 QKX       0.076200
     44 H252       -52.9980   -30.2870    11.8030 hc         1 QKX       0.076200
     45 H121       -45.6350   -29.8280     4.0490 hn         1 QKX       0.385500
     46 H201       -49.8160   -29.4140     8.7670 hn         1 QKX       0.140000
     47 H221       -51.3700   -29.1510    10.2000 hn         1 QKX       0.311500
     48 C13        -47.3970   -29.2240     3.1070 c          1 QKX       0.602700
@<TRIPOS>BOND
     1     1     2 1   
     2     1    24 1   
     3     1    27 1   
     4     2     3 1   
     5     2    10 1   
     6     2    28 1   
     7     3     4 1   
     8     3    29 1   
     9     3    30 1   
    10     4     5 ar  
    11     4     9 ar  
    12     5     6 ar  
    13     5    10 1   
    14     6     7 ar  
    15     6    31 1   
    16     7     8 ar  
    17     7    32 1   
    18     8     9 ar  
    19     8    33 1   
    20     9    34 1   
    21    10    21 1   
    22    10    35 1   
    23    11    12 ar  
    24    11    16 ar  
    25    11    48 1   
    26    12    13 ar  
    27    12    36 1   
    28    13    14 ar  
    29    13    37 1   
    30    14    15 ar  
    31    14    22 1   
    32    15    16 ar  
    33    15    38 1   
    34    16    39 1   
    35    17    22 1   
    36    17    23 1   
    37    17    25 2   
    38    18    19 1   
    39    18    20 1   
    40    18    23 1   
    41    18    40 1   
    42    19    20 1   
    43    19    41 1   
    44    19    42 1   
    45    20    43 1   
    46    20    44 1   
    47    21    45 1   
    48    21    48 1   
    49    22    46 1   
    50    23    47 1   
    51    26    48 2   
@<TRIPOS>SUBSTRUCTURE
     1 QKX         1 TEMP              0 ****  ****    0 ROOT
