@<TRIPOS>MOLECULE
QKX
   48    51     1     0     0
SMALL
No Charge or Current Charge


@<TRIPOS>ATOM
      1 C02        -43.5730   -28.1990     3.5670 c          1 QKX       0.723000
      2 C03        -43.7330   -29.0010     2.2450 c5         1 QKX      -0.203700
      3 C04        -43.1390   -30.4610     2.3750 c5         1 QKX      -0.019100
      4 C05        -43.9320   -31.1600     1.3020 ca         1 QKX      -0.060300
      5 C06        -45.0730   -30.4610     0.9510 ca         1 QKX      -0.082300
      6 C07        -45.9430   -30.9560    -0.0360 ca         1 QKX      -0.082000
      7 C08        -45.6380   -32.1800    -0.6630 ca         1 QKX      -0.134000
      8 C09        -44.4770   -32.8920    -0.3010 ca         1 QKX      -0.128000
      9 C10        -43.6150   -32.3820     0.6890 ca         1 QKX      -0.108000
     10 C11        -45.2300   -29.1790     1.7350 c5         1 QKX       0.164000
     11 C14        -48.1960   -29.2620     4.1390 ca         1 QKX      -0.156600
     12 C15        -49.5950   -29.0680     4.1220 ca         1 QKX      -0.042500
     13 C16        -50.3520   -29.1490     5.3040 ca         1 QKX      -0.174000
     14 C17        -49.7280   -29.4290     6.5360 ca         1 QKX      -0.007000
     15 C18        -48.3370   -29.6250     6.5570 ca         1 QKX      -0.174000
     16 C19        -47.5740   -29.5450     5.3790 ca         1 QKX      -0.042500
     17 C21        -51.7660   -29.3900     8.0990 c          1 QKX       0.661100
     18 C23        -53.2890   -29.4910    10.0640 cx         1 QKX       0.069700
     19 C24        -54.0030   -30.7860    10.3640 cx         1 QKX      -0.137900
     20 C25        -53.4120   -29.9720    11.4890 cx         1 QKX      -0.137900
     21 N12        -46.0520   -29.3200     2.9340 ns         1 QKX      -0.482900
     22 N20        -50.4260   -29.5260     7.7710 ns         1 QKX      -0.162000
     23 N22        -51.9950   -29.5720     9.4440 ns         1 QKX      -0.511900
     24 O01        -42.9660   -27.1390     3.5320 o          1 QKX      -0.725000
     25 O26        -52.6690   -29.1360     7.3130 o          1 QKX      -0.620100
     26 O27        -47.9770   -28.9640     1.7700 o          1 QKX      -0.668100
     27 O28        -44.0110   -28.6550     4.6150 o          1 QKX      -0.725000
     28 H031       -43.1890   -28.4600     1.4620 hc         1 QKX       0.046700
     29 H042       -42.0580   -30.4860     2.1990 hc         1 QKX       0.050700
     30 H041       -43.3290   -30.9090     3.3560 hc         1 QKX       0.050700
     31 H071       -46.8380   -30.4030    -0.3100 ha         1 QKX       0.119000
     32 H081       -46.3020   -32.5760    -1.4280 ha         1 QKX       0.093000
     33 H091       -44.2460   -33.8370    -0.7870 ha         1 QKX       0.090000
     34 H101       -42.7170   -32.9270     0.9730 ha         1 QKX       0.101000
     35 H111       -45.5420   -28.3360     1.1030 h1         1 QKX       0.052700
     36 H151       -50.1050   -28.8500     3.1850 ha         1 QKX       0.143500
     37 H161       -51.4230   -28.9910     5.2360 ha         1 QKX       0.123500
     38 H181       -47.8360   -29.8440     7.4980 ha         1 QKX       0.123500
     39 H191       -46.5020   -29.7100     5.4530 ha         1 QKX       0.143500
     40 H231       -53.8860   -28.6290     9.7590 h1         1 QKX       0.085700
     41 H242       -55.0850   -30.7980    10.2590 hc         1 QKX       0.076200
     42 H241       -53.5080   -31.7150    10.0940 hc         1 QKX       0.076200
     43 H251       -54.0970   -29.4370    12.1420 hc         1 QKX       0.076200
     44 H252       -52.5220   -30.3580    11.9810 hc         1 QKX       0.076200
     45 H121       -45.6430   -29.3890     3.8610 hn         1 QKX       0.385500
     46 H201       -49.8260   -29.7360     8.5570 hn         1 QKX       0.140000
     47 H221       -51.1850   -29.7730    10.0180 hn         1 QKX       0.311500
     48 C13        -47.4180   -29.1670     2.8410 c          1 QKX       0.602700
@<TRIPOS>BOND
     1     1     2 1   
     2     1    24 1   
     3     1    27 1   
     4     2     3 1   
     5     2    10 1   
     6     2    28 1   
     7     3     4 1   
     8     3    29 1   
     9     3    30 1   
    10     4     5 ar  
    11     4     9 ar  
    12     5     6 ar  
    13     5    10 1   
    14     6     7 ar  
    15     6    31 1   
    16     7     8 ar  
    17     7    32 1   
    18     8     9 ar  
    19     8    33 1   
    20     9    34 1   
    21    10    21 1   
    22    10    35 1   
    23    11    12 ar  
    24    11    16 ar  
    25    11    48 1   
    26    12    13 ar  
    27    12    36 1   
    28    13    14 ar  
    29    13    37 1   
    30    14    15 ar  
    31    14    22 1   
    32    15    16 ar  
    33    15    38 1   
    34    16    39 1   
    35    17    22 1   
    36    17    23 1   
    37    17    25 2   
    38    18    19 1   
    39    18    20 1   
    40    18    23 1   
    41    18    40 1   
    42    19    20 1   
    43    19    41 1   
    44    19    42 1   
    45    20    43 1   
    46    20    44 1   
    47    21    45 1   
    48    21    48 1   
    49    22    46 1   
    50    23    47 1   
    51    26    48 2   
@<TRIPOS>SUBSTRUCTURE
     1 QKX         1 TEMP              0 ****  ****    0 ROOT
