@<TRIPOS>MOLECULE
QKY
   47    49     1     0     0
SMALL
bcc


@<TRIPOS>ATOM
      1 N1          12.3380   -47.6770   -16.3570 n2         1 QKY      -0.693900
      2 C4          11.6050   -47.5910   -20.0460 ca         1 QKY      -0.105000
      3 C5          10.8370   -48.3060   -20.9540 ca         1 QKY      -0.136500
      4 C6          10.0620   -49.3770   -20.5280 ca         1 QKY      -0.122000
      5 C7          10.0660   -49.7260   -19.1860 ca         1 QKY      -0.136500
      6 C8          10.8380   -49.0110   -18.2770 ca         1 QKY      -0.105000
      7 C10         12.9340   -44.7580   -16.8520 c3         1 QKY      -0.075400
      8 C13         12.6050   -41.1970   -15.3420 c6         1 QKY      -0.072900
      9 C15         11.5690   -41.1870   -17.6320 c6         1 QKY      -0.072900
     10 C17         15.8930   -48.2460   -16.8130 c3         1 QKY       0.095300
     11 O           14.5190   -46.9790   -19.0620 o          1 QKY      -0.585500
     12 C           13.9400   -47.3050   -18.0500 c          1 QKY       0.690500
     13 C16         12.1490   -42.5730   -17.9020 c6         1 QKY      -0.071900
     14 N2          13.8100   -48.6990   -14.8490 nv         1 QKY      -0.914800
     15 N           14.5020   -47.8940   -16.9570 n          1 QKY      -0.450300
     16 C1          12.4560   -47.1470   -17.6980 c5         1 QKY       0.116500
     17 C2          13.5020   -48.0800   -16.0060 c2         1 QKY       0.661800
     18 C3          11.6150   -47.9350   -18.6940 ca         1 QKY      -0.077300
     19 C9          12.0640   -45.6560   -17.7240 c3         1 QKY      -0.050400
     20 C14         12.4140   -40.4060   -16.6320 c6         1 QKY      -0.074400
     21 C12         13.1840   -42.5800   -15.6230 c6         1 QKY      -0.071900
     22 C11         12.3310   -43.3740   -16.6120 c6         1 QKY      -0.058700
     23 H1          12.2020   -46.7630   -20.4060 ha         1 QKY       0.144500
     24 H2          10.8450   -48.0220   -21.9990 ha         1 QKY       0.129500
     25 H3           9.4600   -49.9320   -21.2360 ha         1 QKY       0.129000
     26 H4           9.4670   -50.5580   -18.8390 ha         1 QKY       0.129500
     27 H5          10.8320   -49.2900   -17.2330 ha         1 QKY       0.144500
     28 H6          13.0920   -45.2340   -15.8800 hc         1 QKY       0.041200
     29 H7          13.9250   -44.6360   -17.3030 hc         1 QKY       0.041200
     30 H9          11.6390   -41.3030   -14.8370 hc         1 QKY       0.037450
     31 H10         11.4760   -40.6300   -18.5670 hc         1 QKY       0.037450
     32 H11         10.5530   -41.2970   -17.2350 hc         1 QKY       0.037450
     33 H12         16.0050   -49.3060   -16.5890 h1         1 QKY       0.049367
     34 H13         16.4020   -48.0350   -17.7490 h1         1 QKY       0.049367
     35 H14         16.3680   -47.6600   -16.0260 h1         1 QKY       0.049367
     36 H15         11.5020   -43.1090   -18.6010 hc         1 QKY       0.038200
     37 H16         13.1230   -42.4740   -18.3970 hc         1 QKY       0.038200
     38 H17         13.0980   -48.6750   -14.1380 hn         1 QKY       0.428800
     39 H18         14.7510   -48.6450   -14.4950 hn         1 QKY       0.428800
     40 H19         12.0810   -45.3070   -18.7570 hc         1 QKY       0.059700
     41 H20         11.0220   -45.5970   -17.3940 hc         1 QKY       0.059700
     42 H21         13.3930   -40.1910   -17.0740 hc         1 QKY       0.037200
     43 H22         11.9530   -39.4390   -16.4190 hc         1 QKY       0.037200
     44 H23         13.2910   -43.1420   -14.6910 hc         1 QKY       0.038200
     45 H24         14.1940   -42.4700   -16.0370 hc         1 QKY       0.038200
     46 H25         11.3380   -43.5170   -16.1630 hc         1 QKY       0.047700
     47 H8          13.2550   -40.6510   -14.6540 hc         1 QKY       0.037450
@<TRIPOS>BOND
     1     1    16 1   
     2     1    17 2   
     3     2     3 ar  
     4     2    18 ar  
     5     2    23 1   
     6     3     4 ar  
     7     3    24 1   
     8     4     5 ar  
     9     4    25 1   
    10     5     6 ar  
    11     5    26 1   
    12     6    18 ar  
    13     6    27 1   
    14     7    19 1   
    15     7    22 1   
    16     7    28 1   
    17     7    29 1   
    18     8    20 1   
    19     8    21 1   
    20     8    30 1   
    21     8    47 1   
    22     9    13 1   
    23     9    20 1   
    24     9    31 1   
    25     9    32 1   
    26    10    15 1   
    27    10    33 1   
    28    10    34 1   
    29    10    35 1   
    30    11    12 2   
    31    12    15 1   
    32    12    16 1   
    33    13    22 1   
    34    13    36 1   
    35    13    37 1   
    36    14    17 1   
    37    14    38 1   
    38    14    39 1   
    39    15    17 1   
    40    16    18 1   
    41    16    19 1   
    42    19    40 1   
    43    19    41 1   
    44    20    42 1   
    45    20    43 1   
    46    21    22 1   
    47    21    44 1   
    48    21    45 1   
    49    22    46 1   
@<TRIPOS>SUBSTRUCTURE
     1 QKY         1 TEMP              0 ****  ****    0 ROOT
