@<TRIPOS>MOLECULE
QKY
   47    49     1     0     0
SMALL
No Charge or Current Charge


@<TRIPOS>ATOM
      1 N1          12.3810   -47.8010   -16.2680 n2         1 QKY      -0.693900
      2 C4          11.5760   -47.6420   -20.0470 ca         1 QKY      -0.087000
      3 C5          10.8140   -48.3530   -20.9910 ca         1 QKY      -0.118500
      4 C6          10.0390   -49.4490   -20.5890 ca         1 QKY      -0.104000
      5 C7          10.0270   -49.8330   -19.2400 ca         1 QKY      -0.118500
      6 C8          10.7890   -49.1230   -18.2950 ca         1 QKY      -0.087000
      7 C10         12.7870   -44.7780   -16.6770 c3         1 QKY      -0.075400
      8 C13         12.5290   -41.0820   -15.3170 c6         1 QKY      -0.072900
      9 C15         11.7240   -41.1000   -17.7350 c6         1 QKY      -0.072900
     10 C17         15.9580   -48.2570   -16.9640 c3         1 QKY       0.095300
     11 O           14.5180   -46.8740   -19.0830 o          1 QKY      -0.510000
     12 C           13.9390   -47.2790   -18.0810 c          1 QKY       0.548000
     13 C16         12.2420   -42.5510   -17.9010 c6         1 QKY      -0.071900
     14 N2          13.9870   -48.7370   -14.8930 nv         1 QKY      -1.025200
     15 N           14.5160   -47.9290   -17.0130 n          1 QKY      -0.383300
     16 C1          12.4300   -47.2130   -17.6630 c5         1 QKY       0.116500
     17 C2          13.5730   -48.1760   -16.0450 c2         1 QKY       0.661800
     18 C3          11.5800   -48.0130   -18.6810 ca         1 QKY      -0.077300
     19 C9          11.9540   -45.7260   -17.5880 c3         1 QKY      -0.050400
     20 C14         12.5370   -40.3290   -16.6680 c6         1 QKY      -0.074400
     21 C12         13.0540   -42.5290   -15.4810 c6         1 QKY      -0.071900
     22 C11         12.2420   -43.3210   -16.5460 c6         1 QKY      -0.058700
     23 H1          12.1690   -46.7970   -20.3890 ha         1 QKY       0.126500
     24 H2          10.8270   -48.0510   -22.0360 ha         1 QKY       0.111500
     25 H3           9.4490   -49.9990   -21.3190 ha         1 QKY       0.111000
     26 H4           9.4260   -50.6820   -18.9240 ha         1 QKY       0.111500
     27 H5          10.7510   -49.4490   -17.2590 ha         1 QKY       0.126500
     28 H6          12.8390   -45.2190   -15.6740 hc         1 QKY       0.041200
     29 H7          13.8200   -44.7450   -17.0450 hc         1 QKY       0.041200
     30 H9          11.5090   -41.1020   -14.9090 hc         1 QKY       0.037450
     31 H10         11.7800   -40.5730   -18.6970 hc         1 QKY       0.037450
     32 H11         10.6630   -41.1170   -17.4500 hc         1 QKY       0.037450
     33 H12         16.0990   -49.2730   -16.5760 h1         1 QKY       0.049367
     34 H13         16.3980   -48.2070   -17.9680 h1         1 QKY       0.049367
     35 H14         16.4770   -47.5420   -16.3130 h1         1 QKY       0.049367
     36 H15         11.6090   -43.0640   -18.6360 hc         1 QKY       0.038200
     37 H16         13.2580   -42.5330   -18.3210 hc         1 QKY       0.038200
     38 H17         13.2880   -48.6530   -14.1650 hn         1 QKY       0.484000
     39 H18         14.9170   -48.4600   -14.6080 hn         1 QKY       0.484000
     40 H19         11.9510   -45.3060   -18.5990 hc         1 QKY       0.059700
     41 H20         10.9100   -45.7030   -17.2520 hc         1 QKY       0.059700
     42 H21         13.5720   -40.1970   -17.0130 hc         1 QKY       0.037200
     43 H22         12.1190   -39.3210   -16.5370 hc         1 QKY       0.037200
     44 H23         13.0040   -43.0450   -14.5120 hc         1 QKY       0.038200
     45 H24         14.1160   -42.5040   -15.7640 hc         1 QKY       0.038200
     46 H25         11.2050   -43.4070   -16.1930 hc         1 QKY       0.047700
     47 H8          13.1470   -40.5420   -14.5860 hc         1 QKY       0.037450
@<TRIPOS>BOND
     1     1    16 1   
     2     1    17 2   
     3     2     3 ar  
     4     2    18 ar  
     5     2    23 1   
     6     3     4 ar  
     7     3    24 1   
     8     4     5 ar  
     9     4    25 1   
    10     5     6 ar  
    11     5    26 1   
    12     6    18 ar  
    13     6    27 1   
    14     7    19 1   
    15     7    22 1   
    16     7    28 1   
    17     7    29 1   
    18     8    20 1   
    19     8    21 1   
    20     8    30 1   
    21     8    47 1   
    22     9    13 1   
    23     9    20 1   
    24     9    31 1   
    25     9    32 1   
    26    10    15 1   
    27    10    33 1   
    28    10    34 1   
    29    10    35 1   
    30    11    12 2   
    31    12    15 1   
    32    12    16 1   
    33    13    22 1   
    34    13    36 1   
    35    13    37 1   
    36    14    17 1   
    37    14    38 1   
    38    14    39 1   
    39    15    17 1   
    40    16    18 1   
    41    16    19 1   
    42    19    40 1   
    43    19    41 1   
    44    20    42 1   
    45    20    43 1   
    46    21    22 1   
    47    21    44 1   
    48    21    45 1   
    49    22    46 1   
@<TRIPOS>SUBSTRUCTURE
     1 QKY         1 TEMP              0 ****  ****    0 ROOT
