@<TRIPOS>MOLECULE
QKZ
   27    28     1     0     0
SMALL
abcg2


@<TRIPOS>ATOM
      1 N1         -10.0060     7.2980   -97.8590 nb         1 QKZ      -0.203500
      2 C4          -6.1620     8.8020   -96.2970 c3         1 QKZ      -0.114100
      3 C5          -7.3490     8.0990   -96.9380 c          1 QKZ       0.615100
      4 C6          -9.7850     8.4740   -97.2970 ca         1 QKZ       0.253900
      5 C7         -11.2550     7.0600   -98.2420 ca         1 QKZ       0.140900
      6 C8         -12.2780     7.9730   -98.0690 ca         1 QKZ      -0.258000
      7 C10         -6.3270     8.4820   -93.8060 ca         1 QKZ      -0.085500
      8 O           -7.2410     7.0000   -97.4310 o          1 QKZ      -0.521100
      9 C3          -5.7900     8.0850   -95.0260 ca         1 QKZ      -0.087300
     10 C2          -4.9390     6.9830   -95.0550 ca         1 QKZ      -0.085500
     11 C1          -4.6260     6.2930   -93.8940 ca         1 QKZ      -0.102500
     12 C11         -6.0250     7.8030   -92.6350 ca         1 QKZ      -0.102500
     13 C           -5.1750     6.7100   -92.6920 ca         1 QKZ       0.126000
     14 CL          -4.7890     5.8540   -91.2340 cl         1 QKZ      -0.202000
     15 N           -8.5140     8.8120   -96.8650 ns         1 QKZ      -0.318900
     16 N2         -10.6870     9.4280   -97.0780 nb         1 QKZ      -0.203500
     17 C9         -11.9250     9.1690   -97.4650 ca         1 QKZ       0.140900
     18 H1          -5.3370     8.7650   -97.0090 hc         1 QKZ       0.071700
     19 H2          -6.3690     9.8530   -96.0950 hc         1 QKZ       0.071700
     20 H3         -11.4400     6.0980   -98.7060 h4         1 QKZ       0.027600
     21 H4         -13.2900     7.7670   -98.3840 ha         1 QKZ       0.138000
     22 H6          -4.5070     6.6570   -95.9920 ha         1 QKZ       0.120500
     23 H7          -3.9590     5.4420   -93.9280 ha         1 QKZ       0.131000
     24 H8          -6.4470     8.1250   -91.6930 ha         1 QKZ       0.131000
     25 H9          -8.4680     9.7270   -96.4440 hn         1 QKZ       0.168000
     26 H10        -12.6620     9.9440   -97.2860 h4         1 QKZ       0.027600
     27 H5          -6.9910     9.3370   -93.7580 ha         1 QKZ       0.120500
@<TRIPOS>BOND
     1     1     4 ar  
     2     1     5 ar  
     3     2     3 1   
     4     2     9 1   
     5     2    18 1   
     6     2    19 1   
     7     3     8 2   
     8     3    15 1   
     9     4    15 1   
    10     4    16 ar  
    11     5     6 ar  
    12     5    20 1   
    13     6    17 ar  
    14     6    21 1   
    15     7     9 ar  
    16     7    12 ar  
    17     7    27 1   
    18     9    10 ar  
    19    10    11 ar  
    20    10    22 1   
    21    11    13 ar  
    22    11    23 1   
    23    12    13 ar  
    24    12    24 1   
    25    13    14 1   
    26    15    25 1   
    27    16    17 ar  
    28    17    26 1   
@<TRIPOS>SUBSTRUCTURE
     1 QKZ         1 TEMP              0 ****  ****    0 ROOT
