@<TRIPOS>MOLECULE
QKZ
   27    28     1     0     0
SMALL
No Charge or Current Charge


@<TRIPOS>ATOM
      1 N1         -10.1180     7.2190   -97.5140 nb         1 QKZ      -0.203500
      2 C4          -6.1430     8.8440   -96.2820 c3         1 QKZ      -0.114100
      3 C5          -7.3320     8.1900   -96.9970 c          1 QKZ       0.615100
      4 C6          -9.8300     8.5160   -97.2760 ca         1 QKZ       0.253900
      5 C7         -11.3740     6.9580   -97.9310 ca         1 QKZ       0.140900
      6 C8         -12.3180     7.9870   -98.0930 ca         1 QKZ      -0.258000
      7 C10         -6.4000     8.3800   -93.7920 ca         1 QKZ      -0.085500
      8 O           -7.2010     7.1830   -97.6810 o          1 QKZ      -0.521100
      9 C3          -5.7790     8.0690   -95.0190 ca         1 QKZ      -0.087300
     10 C2          -4.8270     7.0320   -95.0710 ca         1 QKZ      -0.085500
     11 C1          -4.4970     6.3150   -93.9070 ca         1 QKZ      -0.102500
     12 C11         -6.0680     7.6620   -92.6300 ca         1 QKZ      -0.102500
     13 C           -5.1170     6.6310   -92.6880 ca         1 QKZ       0.126000
     14 Cl          -4.7050     5.7330   -91.2330 cl         1 QKZ      -0.202000
     15 N           -8.5420     8.8290   -96.8000 ns         1 QKZ      -0.318900
     16 N2         -10.6590     9.5720   -97.3850 nb         1 QKZ      -0.203500
     17 C9         -11.9120     9.3020   -97.8030 ca         1 QKZ       0.140900
     18 H1          -5.2880     8.8550   -96.9670 hc         1 QKZ       0.071700
     19 H2          -6.3980     9.8740   -96.0090 hc         1 QKZ       0.071700
     20 H3         -11.6230     5.9180   -98.1330 h4         1 QKZ       0.027600
     21 H4         -13.3300     7.7730   -98.4290 ha         1 QKZ       0.138000
     22 H6          -4.3430     6.7780   -96.0120 ha         1 QKZ       0.120500
     23 H7          -3.7620     5.5150   -93.9500 ha         1 QKZ       0.131000
     24 H8          -6.5480     7.9040   -91.6850 ha         1 QKZ       0.131000
     25 H9          -8.4970     9.6770   -96.2500 hn         1 QKZ       0.168000
     26 H10        -12.5940    10.1450   -97.9020 h4         1 QKZ       0.027600
     27 H5          -7.1390     9.1770   -93.7380 ha         1 QKZ       0.120500
@<TRIPOS>BOND
     1     1     4 ar  
     2     1     5 ar  
     3     2     3 1   
     4     2     9 1   
     5     2    18 1   
     6     2    19 1   
     7     3     8 2   
     8     3    15 1   
     9     4    15 1   
    10     4    16 ar  
    11     5     6 ar  
    12     5    20 1   
    13     6    17 ar  
    14     6    21 1   
    15     7     9 ar  
    16     7    12 ar  
    17     7    27 1   
    18     9    10 ar  
    19    10    11 ar  
    20    10    22 1   
    21    11    13 ar  
    22    11    23 1   
    23    12    13 ar  
    24    12    24 1   
    25    13    14 1   
    26    15    25 1   
    27    16    17 ar  
    28    17    26 1   
@<TRIPOS>SUBSTRUCTURE
     1 QKZ         1 TEMP              0 ****  ****    0 ROOT
