@<TRIPOS>MOLECULE
QL0
   28    28     1     0     0
SMALL
abcg2


@<TRIPOS>ATOM
      1 C1          14.3550    19.9840     0.4820 c3         1 QL0       0.083300
      2 C2          16.1410    18.8210     1.7520 c3         1 QL0       0.116000
      3 C5          17.7960    21.2260     1.4870 ca         1 QL0      -0.150600
      4 C6          18.7820    20.4800     0.8440 ca         1 QL0      -0.062000
      5 C7          20.1200    20.6030     1.2180 ca         1 QL0      -0.132000
      6 C8          20.4770    21.4590     2.2460 ca         1 QL0      -0.037000
      7 C9          19.4910    22.2080     2.8990 ca         1 QL0      -0.204600
      8 C10         19.8320    23.1230     4.0000 c          1 QL0       0.583500
      9 C11         18.1580    22.0980     2.5080 ca         1 QL0      -0.019000
     10 C3          15.3030    18.5430     2.9970 c3         1 QL0       0.058600
     11 C4          16.3660    21.1930     1.0320 c          1 QL0       0.614700
     12 N1          15.7110    20.0110     1.0220 n          1 QL0      -0.404800
     13 O1          15.8390    22.2400     0.6430 o          1 QL0      -0.590100
     14 S1          15.4570    19.9330     4.1870 sh         1 QL0      -0.455800
     15 O2          20.9530    23.3040     4.4340 o          1 QL0      -0.521100
     16 H1          14.1120    18.9600     0.2060 h1         1 QL0       0.045367
     17 H2          13.6250    20.3390     1.2140 h1         1 QL0       0.045367
     18 H3          14.3020    20.6200    -0.3970 h1         1 QL0       0.045367
     19 H4          16.0610    17.9590     1.0870 h1         1 QL0       0.064700
     20 H5          17.1840    18.9270     2.0320 h1         1 QL0       0.064700
     21 H6          18.5080    19.8040     0.0440 ha         1 QL0       0.119000
     22 H7          20.8760    20.0260     0.7020 ha         1 QL0       0.121000
     23 H8          21.5090    21.5580     2.5540 ha         1 QL0       0.135000
     24 H9          18.9700    23.6640     4.4330 h4         1 QL0      -0.004800
     25 H11         17.4010    22.6910     3.0070 ha         1 QL0       0.133000
     26 H12         14.2530    18.4130     2.7430 h1         1 QL0       0.065700
     27 H13         15.6670    17.6280     3.4610 h1         1 QL0       0.065700
     28 H14         14.5560    19.4790     5.0730 hs         1 QL0       0.217800
@<TRIPOS>BOND
     1     1    12 1   
     2     1    16 1   
     3     1    17 1   
     4     1    18 1   
     5     2    10 1   
     6     2    12 1   
     7     2    19 1   
     8     2    20 1   
     9     3     4 ar  
    10     3     9 ar  
    11     3    11 1   
    12     4     5 ar  
    13     4    21 1   
    14     5     6 ar  
    15     5    22 1   
    16     6     7 ar  
    17     6    23 1   
    18     7     8 1   
    19     7     9 ar  
    20     8    15 2   
    21     8    24 1   
    22     9    25 1   
    23    10    14 1   
    24    10    26 1   
    25    10    27 1   
    26    11    12 1   
    27    11    13 2   
    28    14    28 1   
@<TRIPOS>SUBSTRUCTURE
     1 QL0         1 TEMP              0 ****  ****    0 ROOT
