@<TRIPOS>MOLECULE
QL0
   28    28     1     0     0
SMALL
No Charge or Current Charge


@<TRIPOS>ATOM
      1 C1          14.3770    19.9960     0.3920 c3         1 QL0       0.083300
      2 C2          16.1170    18.7720     1.7430 c3         1 QL0       0.116000
      3 C5          17.7950    21.3060     1.6500 ca         1 QL0      -0.150600
      4 C6          18.7180    20.4250     1.0420 ca         1 QL0      -0.062000
      5 C7          20.0870    20.5120     1.3430 ca         1 QL0      -0.132000
      6 C8          20.5540    21.4860     2.2400 ca         1 QL0      -0.037000
      7 C9          19.6500    22.3900     2.8350 ca         1 QL0      -0.204600
      8 C10         20.1320    23.4500     3.7880 c          1 QL0       0.583500
      9 C11         18.2760    22.3000     2.5290 ca         1 QL0      -0.019000
     10 C3          15.1540    18.3650     2.8820 c3         1 QL0       0.058600
     11 C4          16.3180    21.2580     1.3250 c          1 QL0       0.614700
     12 N1          15.7180    20.0120     1.0190 n          1 QL0      -0.404800
     13 O1          15.6770    22.2990     1.2290 o          1 QL0      -0.590100
     14 S1          15.0170    19.6250     4.2420 sh         1 QL0      -0.455800
     15 O2          21.3100    23.5910     4.1000 o          1 QL0      -0.521100
     16 H1          14.1250    18.9800     0.0610 h1         1 QL0       0.045367
     17 H2          13.6240    20.3370     1.1140 h1         1 QL0       0.045367
     18 H3          14.3660    20.6610    -0.4810 h1         1 QL0       0.045367
     19 H4          16.1730    17.9500     1.0180 h1         1 QL0       0.064700
     20 H5          17.1120    18.8790     2.1870 h1         1 QL0       0.064700
     21 H6          18.3800    19.6810     0.3240 ha         1 QL0       0.119000
     22 H7          20.7890    19.8270     0.8740 ha         1 QL0       0.121000
     23 H8          21.6190    21.5420     2.4620 ha         1 QL0       0.135000
     24 H9          19.3490    24.1190     4.2080 h4         1 QL0      -0.004800
     25 H11         17.5750    22.9970     2.9850 ha         1 QL0       0.133000
     26 H12         14.1520    18.1820     2.4730 h1         1 QL0       0.065700
     27 H13         15.5080    17.4250     3.3240 h1         1 QL0       0.065700
     28 H14         14.1350    18.9290     5.0030 hs         1 QL0       0.217800
@<TRIPOS>BOND
     1     1    12 1   
     2     1    16 1   
     3     1    17 1   
     4     1    18 1   
     5     2    10 1   
     6     2    12 1   
     7     2    19 1   
     8     2    20 1   
     9     3     4 ar  
    10     3     9 ar  
    11     3    11 1   
    12     4     5 ar  
    13     4    21 1   
    14     5     6 ar  
    15     5    22 1   
    16     6     7 ar  
    17     6    23 1   
    18     7     8 1   
    19     7     9 ar  
    20     8    15 2   
    21     8    24 1   
    22     9    25 1   
    23    10    14 1   
    24    10    26 1   
    25    10    27 1   
    26    11    12 1   
    27    11    13 2   
    28    14    28 1   
@<TRIPOS>SUBSTRUCTURE
     1 QL0         1 TEMP              0 ****  ****    0 ROOT
