@<TRIPOS>MOLECULE
QL1
   53    57     1     0     0
SMALL
No Charge or Current Charge


@<TRIPOS>ATOM
      1 N1          15.1560   -47.1010   -16.4270 n          1 QL1      -0.384300
      2 C4          14.5020   -42.0080   -16.0150 c6         1 QL1      -0.057700
      3 C5          14.5470   -43.5620   -16.0690 c6         1 QL1      -0.068733
      4 C6          13.2750   -41.5540   -15.1750 c6         1 QL1      -0.069067
      5 C7          11.9700   -42.0830   -15.8350 c6         1 QL1      -0.057700
      6 C8          12.0100   -43.6380   -15.8900 c6         1 QL1      -0.068733
      7 C10         13.3020   -45.7490   -16.7650 c5         1 QL1       0.135500
      8 C13         10.9230   -47.0950   -19.5440 ca         1 QL1      -0.180500
      9 C15          9.7690   -47.2330   -17.4180 ca         1 QL1      -0.180500
     10 C20         16.4470   -47.8110   -16.5700 c3         1 QL1       0.095300
     11 O1          15.1590   -46.0830   -18.5040 o          1 QL1      -0.518000
     12 C19         14.6370   -46.2930   -17.4150 c          1 QL1       0.550000
     13 C18         14.3840   -47.0170   -15.3000 c2         1 QL1       0.661800
     14 N2          14.7810   -47.7090   -14.2150 nv         1 QL1      -1.024200
     15 N           13.3550   -46.2810   -15.3400 n2         1 QL1      -0.697900
     16 C11         12.0600   -46.3440   -17.4950 ca         1 QL1      -0.113300
     17 C16         10.8930   -46.6930   -16.7710 ca         1 QL1      -0.055500
     18 C14          9.7750   -47.4390   -18.8030 ca         1 QL1       0.143100
     19 O            8.6420   -47.9710   -19.3840 os         1 QL1      -0.343100
     20 C12         12.0470   -46.5540   -18.8960 ca         1 QL1      -0.055500
     21 C           13.2420   -44.1510   -16.7270 c6         1 QL1      -0.007000
     22 C3          14.3830   -41.4460   -17.4580 c6         1 QL1      -0.069067
     23 C9          11.8520   -41.5170   -17.2770 c6         1 QL1      -0.069067
     24 C2          13.0780   -41.9750   -18.1140 c6         1 QL1      -0.057700
     25 C1          13.1150   -43.5300   -18.1680 c6         1 QL1      -0.068733
     26 H1          15.4230   -41.6310   -15.5490 hc         1 QL1       0.046367
     27 H3          15.4390   -43.8720   -16.6280 hc         1 QL1       0.049533
     28 H4          13.3590   -41.9290   -14.1460 hc         1 QL1       0.038700
     29 H5          13.2470   -40.4580   -15.1060 hc         1 QL1       0.038700
     30 H6          11.1030   -41.7600   -15.2420 hc         1 QL1       0.046367
     31 H7          11.0700   -44.0010   -16.3270 hc         1 QL1       0.049533
     32 H8          12.0420   -44.0300   -14.8650 hc         1 QL1       0.049533
     33 H9          10.9610   -47.2340   -20.6200 ha         1 QL1       0.121000
     34 H10          8.8850   -47.4910   -16.8390 ha         1 QL1       0.121000
     35 H11          7.5680   -48.6410   -21.0470 h1         1 QL1       0.040033
     36 H12          8.6710   -47.2850   -21.3660 h1         1 QL1       0.040033
     37 H13          9.3190   -48.9290   -21.1220 h1         1 QL1       0.040033
     38 H14         16.2830   -48.8940   -16.5030 h1         1 QL1       0.049700
     39 H15         16.9140   -47.5870   -17.5370 h1         1 QL1       0.049700
     40 H16         17.1320   -47.4990   -15.7710 h1         1 QL1       0.049700
     41 H17         14.0530   -47.7440   -13.5110 hn         1 QL1       0.482500
     42 H18         15.1960   -48.6060   -14.4260 hn         1 QL1       0.482500
     43 H19         10.8440   -46.5400   -15.6960 ha         1 QL1       0.131500
     44 H20         12.9030   -46.2860   -19.5080 ha         1 QL1       0.131500
     45 H21         15.2560   -41.7430   -18.0550 hc         1 QL1       0.038700
     46 H22         14.3790   -40.3470   -17.4380 hc         1 QL1       0.038700
     47 H23         11.7970   -40.4200   -17.2510 hc         1 QL1       0.038700
     48 H24         10.9200   -41.8630   -17.7450 hc         1 QL1       0.038700
     49 H25         12.9930   -41.5750   -19.1340 hc         1 QL1       0.046367
     50 H26         12.2000   -43.8810   -18.6620 hc         1 QL1       0.049533
     51 H27         13.9490   -43.8430   -18.8070 hc         1 QL1       0.049533
     52 H2          14.6760   -43.9510   -15.0490 hc         1 QL1       0.049533
     53 C17          8.5490   -48.2170   -20.7990 c3         1 QL1       0.148900
@<TRIPOS>BOND
     1     1    10 1   
     2     1    12 1   
     3     1    13 1   
     4     2     3 1   
     5     2     4 1   
     6     2    22 1   
     7     2    26 1   
     8     3    21 1   
     9     3    27 1   
    10     3    52 1   
    11     4     5 1   
    12     4    28 1   
    13     4    29 1   
    14     5     6 1   
    15     5    23 1   
    16     5    30 1   
    17     6    21 1   
    18     6    31 1   
    19     6    32 1   
    20     7    12 1   
    21     7    15 1   
    22     7    16 1   
    23     7    21 1   
    24     8    18 ar  
    25     8    20 ar  
    26     8    33 1   
    27     9    17 ar  
    28     9    18 ar  
    29     9    34 1   
    30    10    38 1   
    31    10    39 1   
    32    10    40 1   
    33    11    12 2   
    34    13    14 1   
    35    13    15 2   
    36    14    41 1   
    37    14    42 1   
    38    16    17 ar  
    39    16    20 ar  
    40    17    43 1   
    41    18    19 1   
    42    19    53 1   
    43    20    44 1   
    44    21    25 1   
    45    22    24 1   
    46    22    45 1   
    47    22    46 1   
    48    23    24 1   
    49    23    47 1   
    50    23    48 1   
    51    24    25 1   
    52    24    49 1   
    53    25    50 1   
    54    25    51 1   
    55    35    53 1   
    56    36    53 1   
    57    37    53 1   
@<TRIPOS>SUBSTRUCTURE
     1 QL1         1 TEMP              0 ****  ****    0 ROOT
