@<TRIPOS>MOLECULE
QL1
   53    57     1     0     0
SMALL
abcg2


@<TRIPOS>ATOM
      1 N1          15.1510   -47.0170   -16.4210 n          1 QL1      -0.384300
      2 C4          14.4720   -42.1180   -16.0170 c6         1 QL1      -0.057700
      3 C5          14.5030   -43.6470   -16.0960 c6         1 QL1      -0.068733
      4 C6          13.2520   -41.6720   -15.2100 c6         1 QL1      -0.069067
      5 C7          11.9820   -42.1750   -15.8980 c6         1 QL1      -0.057700
      6 C8          12.0130   -43.7030   -15.9750 c6         1 QL1      -0.068733
      7 C10         13.2540   -45.7560   -16.7940 c5         1 QL1       0.135500
      8 C13         10.8660   -46.9740   -19.5520 ca         1 QL1      -0.180500
      9 C15          9.8280   -47.3170   -17.4170 ca         1 QL1      -0.180500
     10 C20         16.4220   -47.6910   -16.5260 c3         1 QL1       0.095300
     11 O1          15.0070   -46.1520   -18.5290 o          1 QL1      -0.518000
     12 C19         14.5540   -46.2960   -17.4130 c          1 QL1       0.550000
     13 C18         14.3530   -46.9340   -15.2860 c2         1 QL1       0.661800
     14 N2          14.7840   -47.5070   -14.1420 nv         1 QL1      -1.024200
     15 N           13.2850   -46.2490   -15.4280 n2         1 QL1      -0.697900
     16 C11         12.0510   -46.3510   -17.5230 ca         1 QL1      -0.113300
     17 C16         10.9490   -46.8000   -16.7940 ca         1 QL1      -0.055500
     18 C14          9.7750   -47.4110   -18.8080 ca         1 QL1       0.143100
     19 O            8.6490   -47.9330   -19.3350 os         1 QL1      -0.343100
     20 C12         11.9820   -46.4520   -18.9080 ca         1 QL1      -0.055500
     21 C           13.2330   -44.1840   -16.7790 c6         1 QL1      -0.007000
     22 C3          14.3960   -41.5360   -17.4280 c6         1 QL1      -0.069067
     23 C9          11.9020   -41.5880   -17.3070 c6         1 QL1      -0.069067
     24 C2          13.1230   -42.0380   -18.1070 c6         1 QL1      -0.057700
     25 C1          13.1470   -43.5690   -18.1850 c6         1 QL1      -0.068733
     26 H1          15.3860   -41.7720   -15.5240 hc         1 QL1       0.046367
     27 H3          15.3980   -43.9540   -16.6490 hc         1 QL1       0.049533
     28 H4          13.3110   -42.0630   -14.1900 hc         1 QL1       0.038700
     29 H5          13.2310   -40.5800   -15.1270 hc         1 QL1       0.038700
     30 H6          11.1040   -41.8670   -15.3210 hc         1 QL1       0.046367
     31 H7          11.0930   -44.0660   -16.4420 hc         1 QL1       0.049533
     32 H8          12.0440   -44.1240   -14.9670 hc         1 QL1       0.049533
     33 H9          10.8710   -47.0300   -20.6330 ha         1 QL1       0.121000
     34 H10          8.9860   -47.6580   -16.8270 ha         1 QL1       0.121000
     35 H11          7.5960   -48.5130   -20.9500 h1         1 QL1       0.040033
     36 H12          8.6220   -47.0990   -21.2470 h1         1 QL1       0.040033
     37 H13          9.3460   -48.7180   -21.1370 h1         1 QL1       0.040033
     38 H14         16.3150   -48.7610   -16.3480 h1         1 QL1       0.049700
     39 H15         16.8040   -47.5510   -17.5330 h1         1 QL1       0.049700
     40 H16         17.1420   -47.2790   -15.8200 h1         1 QL1       0.049700
     41 H17         14.1070   -47.5560   -13.3980 hn         1 QL1       0.482500
     42 H18         15.3940   -48.3070   -14.1930 hn         1 QL1       0.482500
     43 H19         10.9700   -46.7450   -15.7150 ha         1 QL1       0.131500
     44 H20         12.8090   -46.1250   -19.5220 ha         1 QL1       0.131500
     45 H21         15.2760   -41.8360   -18.0060 hc         1 QL1       0.038700
     46 H22         14.4010   -40.4410   -17.3900 hc         1 QL1       0.038700
     47 H23         11.8560   -40.4950   -17.2630 hc         1 QL1       0.038700
     48 H24         10.9830   -41.9200   -17.8020 hc         1 QL1       0.038700
     49 H25         13.0650   -41.6410   -19.1250 hc         1 QL1       0.046367
     50 H26         12.2390   -43.9100   -18.6890 hc         1 QL1       0.049533
     51 H27         13.9920   -43.8880   -18.7990 hc         1 QL1       0.049533
     52 H2          14.5970   -44.0590   -15.0880 hc         1 QL1       0.049533
     53 C17          8.5640   -48.0660   -20.7400 c3         1 QL1       0.148900
@<TRIPOS>BOND
     1     1    10 1   
     2     1    12 1   
     3     1    13 1   
     4     2     3 1   
     5     2     4 1   
     6     2    22 1   
     7     2    26 1   
     8     3    21 1   
     9     3    27 1   
    10     3    52 1   
    11     4     5 1   
    12     4    28 1   
    13     4    29 1   
    14     5     6 1   
    15     5    23 1   
    16     5    30 1   
    17     6    21 1   
    18     6    31 1   
    19     6    32 1   
    20     7    12 1   
    21     7    15 1   
    22     7    16 1   
    23     7    21 1   
    24     8    18 ar  
    25     8    20 ar  
    26     8    33 1   
    27     9    17 ar  
    28     9    18 ar  
    29     9    34 1   
    30    10    38 1   
    31    10    39 1   
    32    10    40 1   
    33    11    12 2   
    34    13    14 1   
    35    13    15 2   
    36    14    41 1   
    37    14    42 1   
    38    16    17 ar  
    39    16    20 ar  
    40    17    43 1   
    41    18    19 1   
    42    19    53 1   
    43    20    44 1   
    44    21    25 1   
    45    22    24 1   
    46    22    45 1   
    47    22    46 1   
    48    23    24 1   
    49    23    47 1   
    50    23    48 1   
    51    24    25 1   
    52    24    49 1   
    53    25    50 1   
    54    25    51 1   
    55    35    53 1   
    56    36    53 1   
    57    37    53 1   
@<TRIPOS>SUBSTRUCTURE
     1 QL1         1 TEMP              0 ****  ****    0 ROOT
