@<TRIPOS>MOLECULE
QL3
   53    56     1     0     0
SMALL
No Charge or Current Charge


@<TRIPOS>ATOM
      1 N1         -24.1660     6.2480    25.7050 nb         1 QL3      -0.725000
      2 N3         -16.3840     4.8370    25.2210 nb         1 QL3      -0.660000
      3 C4         -22.7550     8.0130    27.3960 ca         1 QL3      -0.053000
      4 C5         -22.4490     6.6370    27.3970 ca         1 QL3      -0.147000
      5 C6         -23.1560     5.8100    26.4900 ca         1 QL3       0.374900
      6 C7         -21.1870     6.4970    29.5520 c3         1 QL3       0.147300
      7 C8         -22.2340     5.7860    30.4010 ca         1 QL3      -0.106300
      8 C10        -24.4510     5.7350    31.4260 ca         1 QL3      -0.103000
      9 C13        -21.9710     4.5070    30.9310 ca         1 QL3      -0.088000
     10 C15        -20.0830     5.1960    26.0620 c3         1 QL3      -0.101100
     11 C17        -17.6840     4.5930    25.4980 ca         1 QL3       0.340900
     12 C20        -16.3670     8.5320    25.3810 ca         1 QL3      -0.078000
     13 C21        -17.2380     9.6060    25.6240 ca         1 QL3      -0.113000
     14 C22        -18.5910     9.3610    25.9110 ca         1 QL3      -0.089000
     15 C24        -18.2090     6.9530    25.7120 ca         1 QL3       0.005000
     16 O1         -19.6850     4.4950    28.3170 o          1 QL3      -0.583100
     17 C14        -20.3410     5.2270    27.5820 c          1 QL3       0.606100
     18 C16        -18.6390     5.6030    25.7450 ca         1 QL3      -0.104300
     19 C23        -19.0770     8.0430    25.9550 ca         1 QL3      -0.108000
     20 C19        -16.8500     7.2100    25.4250 ca         1 QL3      -0.098000
     21 C18        -15.9820     6.1270    25.1860 ca         1 QL3       0.365900
     22 N2         -21.2850     6.1520    28.1110 n          1 QL3      -0.243400
     23 C12        -22.9420     3.8480    31.7040 ca         1 QL3       0.120000
     24 Cl         -22.6040     2.2520    32.3600 cl         1 QL3      -0.210000
     25 C11        -24.1810     4.4600    31.9530 ca         1 QL3      -0.096000
     26 C9         -23.4800     6.3950    30.6520 ca         1 QL3      -0.097000
     27 C3         -23.8040     8.4720    26.5840 ca         1 QL3      -0.171000
     28 C2         -24.4870     7.5510    25.7700 ca         1 QL3       0.480900
     29 N          -25.5450     7.8470    24.9030 ns         1 QL3      -0.327900
     30 C1         -26.3060     8.9830    24.7600 c          1 QL3       0.612100
     31 O          -26.1670     9.9890    25.4420 o          1 QL3      -0.576100
     32 C          -27.3660     8.8930    23.6700 c3         1 QL3      -0.177100
     33 H1         -22.1910     8.7210    28.0000 ha         1 QL3       0.130000
     34 H2         -22.9150     4.7510    26.4040 h4         1 QL3       0.033100
     35 H3         -20.1860     6.2580    29.9340 h1         1 QL3       0.073200
     36 H4         -21.3020     7.5800    29.6740 h1         1 QL3       0.073200
     37 H5         -25.4110     6.2100    31.6150 ha         1 QL3       0.120000
     38 H6         -21.0170     4.0210    30.7440 ha         1 QL3       0.143000
     39 H7         -20.7740     5.8400    25.5130 hc         1 QL3       0.072200
     40 H8         -20.2600     4.1690    25.7210 hc         1 QL3       0.072200
     41 H10        -15.3200     8.7290    25.1600 ha         1 QL3       0.117000
     42 H11        -16.8660    10.6270    25.5910 ha         1 QL3       0.117000
     43 H12        -19.2650    10.1940    26.0990 ha         1 QL3       0.113000
     44 H13        -20.1270     7.8900    26.1760 ha         1 QL3       0.114000
     45 H14        -14.9300     6.2950    24.9620 h4         1 QL3       0.019100
     46 H15        -24.9300     3.9470    32.5510 ha         1 QL3       0.131000
     47 H16        -23.6990     7.3800    30.2440 ha         1 QL3       0.117000
     48 H17        -24.0560     9.5260    26.5800 ha         1 QL3       0.163000
     49 H18        -25.7900     7.0840    24.2890 hn         1 QL3       0.168000
     50 H19        -27.9590     9.8100    23.5810 hc         1 QL3       0.069700
     51 H20        -26.8820     8.6300    22.7230 hc         1 QL3       0.069700
     52 H21        -27.9980     8.0180    23.8590 hc         1 QL3       0.069700
     53 H9         -17.9720     3.5420    25.5240 h4         1 QL3       0.018100
@<TRIPOS>BOND
     1     1     5 ar  
     2     1    28 ar  
     3     2    11 ar  
     4     2    21 ar  
     5     3     4 ar  
     6     3    27 ar  
     7     3    33 1   
     8     4     5 ar  
     9     4    22 1   
    10     5    34 1   
    11     6     7 1   
    12     6    22 1   
    13     6    35 1   
    14     6    36 1   
    15     7     9 ar  
    16     7    26 ar  
    17     8    25 ar  
    18     8    26 ar  
    19     8    37 1   
    20     9    23 ar  
    21     9    38 1   
    22    10    17 1   
    23    10    18 1   
    24    10    39 1   
    25    10    40 1   
    26    11    18 ar  
    27    11    53 1   
    28    12    13 ar  
    29    12    20 ar  
    30    12    41 1   
    31    13    14 ar  
    32    13    42 1   
    33    14    19 ar  
    34    14    43 1   
    35    15    18 ar  
    36    15    19 ar  
    37    15    20 ar  
    38    16    17 2   
    39    17    22 1   
    40    19    44 1   
    41    20    21 ar  
    42    21    45 1   
    43    23    24 1   
    44    23    25 ar  
    45    25    46 1   
    46    26    47 1   
    47    27    28 ar  
    48    27    48 1   
    49    28    29 1   
    50    29    30 1   
    51    29    49 1   
    52    30    31 2   
    53    30    32 1   
    54    32    50 1   
    55    32    51 1   
    56    32    52 1   
@<TRIPOS>SUBSTRUCTURE
     1 QL3         1 TEMP              0 ****  ****    0 ROOT
