@<TRIPOS>MOLECULE
QL3
   53    56     1     0     0
SMALL
abcg2


@<TRIPOS>ATOM
      1 N1         -24.3720     6.1600    26.3420 nb         1 QL3      -0.725000
      2 N3         -16.7530     4.6990    24.9540 nb         1 QL3      -0.660000
      3 C4         -22.7090     8.2250    27.1470 ca         1 QL3      -0.053000
      4 C5         -22.4300     6.9120    27.5130 ca         1 QL3      -0.147000
      5 C6         -23.3040     5.9180    27.0970 ca         1 QL3       0.374900
      6 C7         -21.4880     6.8100    29.7820 c3         1 QL3       0.147300
      7 C8         -22.4820     5.8390    30.3700 ca         1 QL3      -0.106300
      8 C10        -24.6460     5.3700    31.3380 ca         1 QL3      -0.103000
      9 C13        -22.1760     4.4780    30.4150 ca         1 QL3      -0.088000
     10 C15        -20.0810     5.8050    26.3580 c3         1 QL3      -0.101100
     11 C17        -18.0260     4.7340    25.4310 ca         1 QL3       0.340900
     12 C20        -15.8860     8.2760    25.2040 ca         1 QL3      -0.078000
     13 C21        -16.4390     9.4650    25.6040 ca         1 QL3      -0.113000
     14 C22        -17.7600     9.4970    26.1020 ca         1 QL3      -0.089000
     15 C24        -17.9640     7.1060    25.7910 ca         1 QL3       0.005000
     16 O1         -19.2700     5.6460    28.6140 o          1 QL3      -0.583100
     17 C14        -20.1750     6.0090    27.8670 c          1 QL3       0.606100
     18 C16        -18.6690     5.8710    25.8530 ca         1 QL3      -0.104300
     19 C23        -18.5080     8.3490    26.1950 ca         1 QL3      -0.108000
     20 C19        -16.6320     7.0790    25.2910 ca         1 QL3      -0.098000
     21 C18        -16.0930     5.8310    24.8920 ca         1 QL3       0.365900
     22 N2         -21.3090     6.5980    28.3370 n          1 QL3      -0.243400
     23 C12        -23.1110     3.5890    30.9180 ca         1 QL3       0.120000
     24 CL         -22.7210     1.8800    30.9670 cl         1 QL3      -0.210000
     25 C11        -24.3490     4.0140    31.3850 ca         1 QL3      -0.096000
     26 C9         -23.7200     6.2770    30.8310 ca         1 QL3      -0.097000
     27 C3         -23.8180     8.4970    26.3670 ca         1 QL3      -0.171000
     28 C2         -24.6270     7.4220    25.9790 ca         1 QL3       0.480900
     29 N          -25.7670     7.5470    25.1860 ns         1 QL3      -0.327900
     30 C1         -26.3170     8.6630    24.6110 c          1 QL3       0.612100
     31 O          -25.8500     9.7870    24.7390 o          1 QL3      -0.576100
     32 C          -27.5550     8.3760    23.7980 c3         1 QL3      -0.177100
     33 H1         -22.0530     9.0250    27.4640 ha         1 QL3       0.130000
     34 H2         -23.1240     4.8860    27.3790 h4         1 QL3       0.033100
     35 H3         -20.5110     6.6950    30.2440 h1         1 QL3       0.073200
     36 H4         -21.8300     7.8330    29.9360 h1         1 QL3       0.073200
     37 H5         -25.6070     5.7170    31.6930 ha         1 QL3       0.120000
     38 H6         -21.2220     4.1200    30.0530 ha         1 QL3       0.143000
     39 H7         -20.7090     6.5230    25.8320 hc         1 QL3       0.072200
     40 H8         -20.4970     4.8160    26.1490 hc         1 QL3       0.072200
     41 H10        -14.8730     8.2350    24.8200 ha         1 QL3       0.117000
     42 H11        -15.8690    10.3830    25.5390 ha         1 QL3       0.117000
     43 H12        -18.1880    10.4420    26.4130 ha         1 QL3       0.113000
     44 H13        -19.5180     8.4010    26.5760 ha         1 QL3       0.114000
     45 H14        -15.0760     5.7980    24.5110 h4         1 QL3       0.019100
     46 H15        -25.0620     3.2990    31.7720 ha         1 QL3       0.131000
     47 H16        -23.9620     7.3320    30.7870 ha         1 QL3       0.117000
     48 H17        -24.0580     9.4990    26.0560 ha         1 QL3       0.163000
     49 H18        -26.2300     6.6650    25.0140 hn         1 QL3       0.168000
     50 H19        -27.9530     9.3090    23.4080 hc         1 QL3       0.069700
     51 H20        -27.3140     7.7080    22.9680 hc         1 QL3       0.069700
     52 H21        -28.3100     7.8830    24.4130 hc         1 QL3       0.069700
     53 H9         -18.5430     3.7810    25.4660 h4         1 QL3       0.018100
@<TRIPOS>BOND
     1     1     5 ar  
     2     1    28 ar  
     3     2    11 ar  
     4     2    21 ar  
     5     3     4 ar  
     6     3    27 ar  
     7     3    33 1   
     8     4     5 ar  
     9     4    22 1   
    10     5    34 1   
    11     6     7 1   
    12     6    22 1   
    13     6    35 1   
    14     6    36 1   
    15     7     9 ar  
    16     7    26 ar  
    17     8    25 ar  
    18     8    26 ar  
    19     8    37 1   
    20     9    23 ar  
    21     9    38 1   
    22    10    17 1   
    23    10    18 1   
    24    10    39 1   
    25    10    40 1   
    26    11    18 ar  
    27    11    53 1   
    28    12    13 ar  
    29    12    20 ar  
    30    12    41 1   
    31    13    14 ar  
    32    13    42 1   
    33    14    19 ar  
    34    14    43 1   
    35    15    18 ar  
    36    15    19 ar  
    37    15    20 ar  
    38    16    17 2   
    39    17    22 1   
    40    19    44 1   
    41    20    21 ar  
    42    21    45 1   
    43    23    24 1   
    44    23    25 ar  
    45    25    46 1   
    46    26    47 1   
    47    27    28 ar  
    48    27    48 1   
    49    28    29 1   
    50    29    30 1   
    51    29    49 1   
    52    30    31 2   
    53    30    32 1   
    54    32    50 1   
    55    32    51 1   
    56    32    52 1   
@<TRIPOS>SUBSTRUCTURE
     1 QL3         1 TEMP              0 ****  ****    0 ROOT
