@<TRIPOS>MOLECULE
QL5
   30    31     1     0     0
SMALL
bcc


@<TRIPOS>ATOM
      1 N1           5.6660    14.1740   -44.6550 nb         1 QL5      -0.646000
      2 C4           5.2820    11.0100   -52.4620 ca         1 QL5      -0.117000
      3 C5           5.5240    11.6630   -51.2560 ca         1 QL5      -0.072300
      4 C6           6.8240    12.3550   -50.9760 c3         1 QL5      -0.045800
      5 C7           4.4890    11.6460   -50.3300 ca         1 QL5       0.098100
      6 C8           5.1840    11.6990   -48.0970 c          1 QL5       0.655700
      7 C10          5.7820    12.0390   -45.7200 ca         1 QL5      -0.195300
      8 C13          5.0590    13.9500   -46.9570 ca         1 QL5      -0.195300
      9 C2           3.0560    10.3610   -51.7710 ca         1 QL5      -0.066300
     10 C3           4.0770    10.3710   -52.7170 ca         1 QL5      -0.123000
     11 O1           4.6510    12.3410   -49.1390 os         1 QL5      -0.353200
     12 O2           5.4980    10.5410   -48.1150 o          1 QL5      -0.505000
     13 C9           5.3370    12.5890   -46.9150 ca         1 QL5      -0.102600
     14 C11          5.9270    12.8720   -44.6220 ca         1 QL5       0.388700
     15 C12          5.2440    14.6930   -45.8000 ca         1 QL5       0.388700
     16 C14          3.2810    11.0160   -50.5640 ca         1 QL5      -0.122000
     17 H1           6.0560    11.0050   -53.2200 ha         1 QL5       0.134000
     18 H2           6.6780    13.3950   -50.6790 hc         1 QL5       0.047033
     19 H3           7.3790    11.8640   -50.1740 hc         1 QL5       0.047033
     20 H4           7.4590    12.3480   -51.8600 hc         1 QL5       0.047033
     21 H5           6.0120    10.9860   -45.6350 ha         1 QL5       0.161500
     22 H6           4.7130    14.4400   -47.8550 ha         1 QL5       0.161500
     23 H7           1.8330     8.5980   -51.7300 hc         1 QL5       0.045033
     24 H8           0.9390    10.0880   -51.4710 hc         1 QL5       0.045033
     25 H9           1.5030     9.6620   -53.0870 hc         1 QL5       0.045033
     26 H10          3.9310     9.8790   -53.6710 ha         1 QL5       0.133000
     27 H11          6.2700    12.4670   -43.6770 h4         1 QL5       0.025100
     28 H12          5.0380    15.7570   -45.8060 h4         1 QL5       0.025100
     29 H13          2.5090    11.0430   -49.8030 ha         1 QL5       0.143000
     30 C1           1.7630     9.6450   -52.0290 c3         1 QL5      -0.046800
@<TRIPOS>BOND
     1     1    14 ar  
     2     1    15 ar  
     3     2     3 ar  
     4     2    10 ar  
     5     2    17 1   
     6     3     4 1   
     7     3     5 ar  
     8     4    18 1   
     9     4    19 1   
    10     4    20 1   
    11     5    11 1   
    12     5    16 ar  
    13     6    11 1   
    14     6    12 2   
    15     6    13 1   
    16     7    13 ar  
    17     7    14 ar  
    18     7    21 1   
    19     8    13 ar  
    20     8    15 ar  
    21     8    22 1   
    22     9    10 ar  
    23     9    16 ar  
    24     9    30 1   
    25    10    26 1   
    26    14    27 1   
    27    15    28 1   
    28    16    29 1   
    29    23    30 1   
    30    24    30 1   
    31    25    30 1   
@<TRIPOS>SUBSTRUCTURE
     1 QL5         1 TEMP              0 ****  ****    0 ROOT
