@<TRIPOS>MOLECULE
QL5
   30    31     1     0     0
SMALL
No Charge or Current Charge


@<TRIPOS>ATOM
      1 N1           5.7810    14.2100   -44.5670 nb         1 QL5      -0.646000
      2 C4           5.1990    11.2000   -52.6920 ca         1 QL5      -0.099000
      3 C5           5.5140    11.8060   -51.4600 ca         1 QL5      -0.072300
      4 C6           6.7790    12.6460   -51.3220 c3         1 QL5      -0.045800
      5 C7           4.6510    11.6200   -50.3600 ca         1 QL5       0.098100
      6 C8           4.9320    11.5920   -47.9440 c          1 QL5       0.606700
      7 C10          5.2770    12.0120   -45.4590 ca         1 QL5      -0.112000
      8 C13          5.4660    13.8940   -46.9520 ca         1 QL5      -0.112000
      9 C2           3.1620    10.2560   -51.7360 ca         1 QL5      -0.066300
     10 C3           4.0330    10.4270   -52.8270 ca         1 QL5      -0.105000
     11 O1           4.9480    12.2280   -49.1600 os         1 QL5      -0.353200
     12 O2           4.7790    10.3840   -47.8120 o          1 QL5      -0.456000
     13 C9           5.2280    12.5100   -46.7800 ca         1 QL5      -0.102600
     14 C11          5.5540    12.8870   -44.3950 ca         1 QL5       0.323400
     15 C12          5.7350    14.6960   -45.8290 ca         1 QL5       0.323400
     16 C14          3.4750    10.8580   -50.5030 ca         1 QL5      -0.104000
     17 H1           5.8570    11.3270   -53.5490 ha         1 QL5       0.116000
     18 H2           6.5360    13.6760   -51.0350 hc         1 QL5       0.047033
     19 H3           7.4420    12.2310   -50.5540 hc         1 QL5       0.047033
     20 H4           7.3450    12.6890   -52.2600 hc         1 QL5       0.047033
     21 H5           5.1050    10.9590   -45.2500 ha         1 QL5       0.143500
     22 H6           5.4450    14.3560   -47.9350 ha         1 QL5       0.143500
     23 H7           2.0800     8.3810   -51.6070 hc         1 QL5       0.045033
     24 H8           1.0910     9.8060   -51.2450 hc         1 QL5       0.045033
     25 H9           1.5280     9.4380   -52.9180 hc         1 QL5       0.045033
     26 H10          3.8040     9.9650   -53.7850 ha         1 QL5       0.115000
     27 H11          5.5960    12.5170   -43.3710 h4         1 QL5       0.025100
     28 H12          5.9210    15.7630   -45.9440 h4         1 QL5       0.025100
     29 H13          2.8020    10.7360   -49.6580 ha         1 QL5       0.125000
     30 C1           1.8960     9.4260   -51.8850 c3         1 QL5      -0.046800
@<TRIPOS>BOND
     1     1    14 ar  
     2     1    15 ar  
     3     2     3 ar  
     4     2    10 ar  
     5     2    17 1   
     6     3     4 1   
     7     3     5 ar  
     8     4    18 1   
     9     4    19 1   
    10     4    20 1   
    11     5    11 1   
    12     5    16 ar  
    13     6    11 1   
    14     6    12 2   
    15     6    13 1   
    16     7    13 ar  
    17     7    14 ar  
    18     7    21 1   
    19     8    13 ar  
    20     8    15 ar  
    21     8    22 1   
    22     9    10 ar  
    23     9    16 ar  
    24     9    30 1   
    25    10    26 1   
    26    14    27 1   
    27    15    28 1   
    28    16    29 1   
    29    23    30 1   
    30    24    30 1   
    31    25    30 1   
@<TRIPOS>SUBSTRUCTURE
     1 QL5         1 TEMP              0 ****  ****    0 ROOT
