@<TRIPOS>MOLECULE
QL6
   48    51     1     0     0
SMALL
No Charge or Current Charge


@<TRIPOS>ATOM
      1 C18        -50.2350   -30.3840     3.9350 ca         1 QL6      -0.043500
      2 C17        -48.9700   -29.8110     3.6790 ca         1 QL6      -0.163600
      3 C15        -48.2700   -30.1070     2.3680 c          1 QL6       0.606700
      4 C13        -46.2240   -29.6990     0.9820 c3         1 QL6       0.178200
      5 C12        -44.9820   -28.8450     1.0430 cc         1 QL6      -0.207400
      6 C11        -44.8910   -27.4980     0.5470 ca         1 QL6      -0.085800
      7 C10        -45.8610   -26.6920    -0.0690 ca         1 QL6      -0.070000
      8 C20        -50.3430   -29.2950     6.1210 ca         1 QL6       0.000000
      9 C19        -50.9130   -30.1310     5.1390 ca         1 QL6      -0.170000
     10 C04        -43.7150   -29.1430     1.5780 cd         1 QL6      -0.063300
     11 C06        -43.6250   -27.0460     0.7770 ca         1 QL6      -0.065200
     12 C07        -43.2260   -25.7550     0.4040 ca         1 QL6      -0.133000
     13 C08        -44.1750   -24.9200    -0.2210 ca         1 QL6      -0.124000
     14 C09        -45.4890   -25.3870    -0.4560 ca         1 QL6      -0.162000
     15 C25        -53.5490   -29.0610     9.9680 cx         1 QL6       0.064700
     16 C26        -53.4590   -30.1020    11.0560 cx         1 QL6      -0.134900
     17 C27        -53.4960   -28.6360    11.4140 cx         1 QL6      -0.134900
     18 C28        -49.0840   -28.7230     5.8700 ca         1 QL6      -0.170000
     19 C29        -48.4010   -28.9730     4.6670 ca         1 QL6      -0.043500
     20 N05        -42.8680   -28.0170     1.4010 na         1 QL6      -0.207700
     21 N14        -47.0400   -29.5240     2.1760 ns         1 QL6      -0.481900
     22 N21        -50.9680   -28.9930     7.3620 ns         1 QL6      -0.163000
     23 N24        -52.3800   -28.8340     9.1630 ns         1 QL6      -0.506900
     24 O01        -44.0820   -31.3520     2.3630 o          1 QL6      -0.712000
     25 O03        -42.1370   -30.5010     2.6440 o          1 QL6      -0.712000
     26 O16        -48.7660   -30.8270     1.5100 o          1 QL6      -0.641100
     27 O23        -53.0080   -30.1020     7.3780 o          1 QL6      -0.616100
     28 H181       -50.7010   -31.0340     3.1960 ha         1 QL6       0.130000
     29 H132       -46.8180   -29.4170     0.1020 h1         1 QL6       0.076200
     30 H131       -45.9630   -30.7590     0.8670 h1         1 QL6       0.076200
     31 H101       -46.8710   -27.0570    -0.2440 ha         1 QL6       0.123000
     32 H191       -51.8820   -30.5960     5.2870 ha         1 QL6       0.125500
     33 H071       -42.2140   -25.4040     0.5930 ha         1 QL6       0.098000
     34 H081       -43.8960   -23.9120    -0.5210 ha         1 QL6       0.087000
     35 H091       -46.2170   -24.7370    -0.9370 ha         1 QL6       0.092000
     36 H251       -54.4960   -28.9520     9.4350 h1         1 QL6       0.084700
     37 H261       -54.3460   -30.6970    11.2570 hc         1 QL6       0.077200
     38 H262       -52.5170   -30.6320    11.1780 hc         1 QL6       0.077200
     39 H271       -54.4090   -28.2460    11.8570 hc         1 QL6       0.077200
     40 H272       -52.5800   -28.1810    11.7830 hc         1 QL6       0.077200
     41 H281       -48.6260   -28.0750     6.6140 ha         1 QL6       0.125500
     42 H291       -47.4300   -28.5050     4.5220 ha         1 QL6       0.130000
     43 H051       -41.8980   -27.9480     1.6910 hn         1 QL6       0.366000
     44 H141       -46.6770   -28.9430     2.9160 hn         1 QL6       0.312500
     45 H211       -50.4180   -28.3850     7.9520 hn         1 QL6       0.140000
     46 H241       -51.6440   -28.2390     9.5210 hn         1 QL6       0.310500
     47 C02        -43.2900   -30.4290     2.2410 c          1 QL6       0.717200
     48 C22        -52.1820   -29.3740     7.9120 c          1 QL6       0.661100
@<TRIPOS>BOND
     1     1     2 ar  
     2     1     9 ar  
     3     1    28 1   
     4     2     3 1   
     5     2    19 ar  
     6     3    21 1   
     7     3    26 2   
     8     4     5 1   
     9     4    21 1   
    10     4    29 1   
    11     4    30 1   
    12     5     6 1   
    13     5    10 2   
    14     6     7 ar  
    15     6    11 ar  
    16     7    14 ar  
    17     7    31 1   
    18     8     9 ar  
    19     8    18 ar  
    20     8    22 1   
    21     9    32 1   
    22    10    20 1   
    23    10    47 1   
    24    11    12 ar  
    25    11    20 1   
    26    12    13 ar  
    27    12    33 1   
    28    13    14 ar  
    29    13    34 1   
    30    14    35 1   
    31    15    16 1   
    32    15    17 1   
    33    15    23 1   
    34    15    36 1   
    35    16    17 1   
    36    16    37 1   
    37    16    38 1   
    38    17    39 1   
    39    17    40 1   
    40    18    19 ar  
    41    18    41 1   
    42    19    42 1   
    43    20    43 1   
    44    21    44 1   
    45    22    45 1   
    46    22    48 1   
    47    23    46 1   
    48    23    48 1   
    49    24    47 1   
    50    25    47 1   
    51    27    48 2   
@<TRIPOS>SUBSTRUCTURE
     1 QL6         1 TEMP              0 ****  ****    0 ROOT
