@<TRIPOS>MOLECULE
QL6
   48    51     1     0     0
SMALL
abcg2


@<TRIPOS>ATOM
      1 C18        -50.0680   -29.7740     3.8880 ca         1 QL6      -0.043500
      2 C17        -48.6960   -29.5610     3.7570 ca         1 QL6      -0.163600
      3 C15        -48.0520   -29.8340     2.4370 c          1 QL6       0.606700
      4 C13        -45.9030   -30.2850     1.2730 c3         1 QL6       0.178200
      5 C12        -44.9130   -29.1730     1.1350 cc         1 QL6      -0.207400
      6 C11        -45.2380   -27.8130     0.8080 ca         1 QL6      -0.085800
      7 C10        -46.4370   -27.1420     0.5240 ca         1 QL6      -0.070000
      8 C20        -50.0270   -29.0640     6.1910 ca         1 QL6       0.000000
      9 C19        -50.7350   -29.5420     5.0800 ca         1 QL6      -0.170000
     10 C04        -43.5440   -29.2250     1.3200 cd         1 QL6      -0.063300
     11 C06        -44.0180   -27.0820     0.8020 ca         1 QL6      -0.065200
     12 C07        -43.9740   -25.7160     0.5180 ca         1 QL6      -0.133000
     13 C08        -45.1740   -25.0810     0.2400 ca         1 QL6      -0.124000
     14 C09        -46.3930   -25.7860     0.2420 ca         1 QL6      -0.162000
     15 C25        -53.4360   -28.6570     9.7150 cx         1 QL6       0.064700
     16 C26        -54.0070   -29.9630    10.1910 cx         1 QL6      -0.134900
     17 C27        -53.5390   -28.9320    11.1840 cx         1 QL6      -0.134900
     18 C28        -48.6510   -28.8260     6.0600 ca         1 QL6      -0.170000
     19 C29        -47.9980   -29.0760     4.8680 ca         1 QL6      -0.043500
     20 N05        -43.0200   -27.9650     1.1120 na         1 QL6      -0.207700
     21 N14        -46.7370   -30.1270     2.4640 ns         1 QL6      -0.481900
     22 N21        -50.5980   -28.7990     7.4340 ns         1 QL6      -0.163000
     23 N24        -52.1240   -28.6360     9.1430 ns         1 QL6      -0.506900
     24 O01        -43.0920   -31.4820     1.8850 o          1 QL6      -0.712000
     25 O03        -41.3870   -30.0200     1.7720 o          1 QL6      -0.712000
     26 O16        -48.7070   -29.7990     1.3880 o          1 QL6      -0.641100
     27 O23        -52.7990   -29.3960     7.1070 o          1 QL6      -0.616100
     28 H181       -50.6230   -30.1380     3.0330 ha         1 QL6       0.130000
     29 H132       -46.5820   -30.3060     0.4220 h1         1 QL6       0.076200
     30 H131       -45.3770   -31.2340     1.3310 h1         1 QL6       0.076200
     31 H101       -47.3780   -27.6760     0.5270 ha         1 QL6       0.123000
     32 H191       -51.7920   -29.7280     5.1600 ha         1 QL6       0.125500
     33 H071       -43.0360   -25.1740     0.5160 ha         1 QL6       0.098000
     34 H081       -45.1750   -24.0210     0.0170 ha         1 QL6       0.087000
     35 H091       -47.3110   -25.2540     0.0210 ha         1 QL6       0.092000
     36 H251       -54.1330   -27.9410     9.2930 h1         1 QL6       0.084700
     37 H261       -55.0700   -30.1200    10.0700 hc         1 QL6       0.077200
     38 H262       -53.3910   -30.8420    10.0550 hc         1 QL6       0.077200
     39 H271       -54.2790   -28.3800    11.7460 hc         1 QL6       0.077200
     40 H272       -52.6160   -29.1300    11.7140 hc         1 QL6       0.077200
     41 H281       -48.0960   -28.4390     6.9060 ha         1 QL6       0.125500
     42 H291       -46.9390   -28.8600     4.8080 ha         1 QL6       0.130000
     43 H051       -42.0340   -27.7730     1.1900 hn         1 QL6       0.366000
     44 H141       -46.2680   -30.1760     3.3540 hn         1 QL6       0.312500
     45 H211       -49.9520   -28.4620     8.1320 hn         1 QL6       0.140000
     46 H241       -51.3990   -28.1590     9.6580 hn         1 QL6       0.310500
     47 C02        -42.6020   -30.3420     1.6890 c          1 QL6       0.717200
     48 C22        -51.9090   -28.9710     7.8390 c          1 QL6       0.661100
@<TRIPOS>BOND
     1     1     2 ar  
     2     1     9 ar  
     3     1    28 1   
     4     2     3 1   
     5     2    19 ar  
     6     3    21 1   
     7     3    26 2   
     8     4     5 1   
     9     4    21 1   
    10     4    29 1   
    11     4    30 1   
    12     5     6 1   
    13     5    10 2   
    14     6     7 ar  
    15     6    11 ar  
    16     7    14 ar  
    17     7    31 1   
    18     8     9 ar  
    19     8    18 ar  
    20     8    22 1   
    21     9    32 1   
    22    10    20 1   
    23    10    47 1   
    24    11    12 ar  
    25    11    20 1   
    26    12    13 ar  
    27    12    33 1   
    28    13    14 ar  
    29    13    34 1   
    30    14    35 1   
    31    15    16 1   
    32    15    17 1   
    33    15    23 1   
    34    15    36 1   
    35    16    17 1   
    36    16    37 1   
    37    16    38 1   
    38    17    39 1   
    39    17    40 1   
    40    18    19 ar  
    41    18    41 1   
    42    19    42 1   
    43    20    43 1   
    44    21    44 1   
    45    22    45 1   
    46    22    48 1   
    47    23    46 1   
    48    23    48 1   
    49    24    47 1   
    50    25    47 1   
    51    27    48 2   
@<TRIPOS>SUBSTRUCTURE
     1 QL6         1 TEMP              0 ****  ****    0 ROOT
