@<TRIPOS>MOLECULE
QL7
   62    66     1     0     0
SMALL
No Charge or Current Charge


@<TRIPOS>ATOM
      1 C4           6.0210     1.3390     0.4430 c3         1 QL7       0.185300
      2 C14          2.0500    -0.8130    -0.5050 ca         1 QL7      -0.195600
      3 C6           5.3630     0.8520    -0.8750 c3         1 QL7       0.090000
      4 C11         -0.6660    -0.2340    -0.2390 ca         1 QL7       0.038000
      5 C8           2.8070     1.4690    -0.6440 c5         1 QL7       0.141300
      6 C9           1.6370     0.5050    -0.4970 ca         1 QL7      -0.049300
      7 C10          0.2760     0.8190    -0.3660 ca         1 QL7      -0.137000
      8 C12         -0.2260    -1.5880    -0.2520 ca         1 QL7       0.137000
      9 C13          1.1490    -1.8780    -0.3850 ca         1 QL7      -0.027000
     10 C3           8.0230     2.4170     1.6300 c3         1 QL7      -0.121600
     11 C1           8.4580     0.7210    -0.2070 c3         1 QL7      -0.121600
     12 C2           7.5040     1.8350     0.2930 c3         1 QL7       0.160000
     13 N7           3.9340     0.4890    -0.7300 n          1 QL7      -0.421800
     14 C15          3.5140    -0.8470    -0.6520 c          1 QL7       0.592600
     15 O16          4.2240    -1.8420    -0.7030 o          1 QL7      -0.542000
     16 N17         -1.1640    -2.6430    -0.1190 nh         1 QL7      -0.785400
     17 C18         -1.2270    -3.7070    -1.1730 c6         1 QL7       0.136300
     18 C19         -2.5160    -4.5730    -1.0540 c6         1 QL7       0.151600
     19 O20         -2.6570    -5.0980     0.2870 os         1 QL7      -0.445000
     20 C21         -2.7410    -4.0540     1.2850 c6         1 QL7       0.151600
     21 C22         -1.4670    -3.1570     1.2550 c6         1 QL7       0.136300
     22 C24         -2.8380     1.1210     0.0190 c          1 QL7       0.665300
     23 O25         -2.3690     2.2490     0.0880 o          1 QL7      -0.568100
     24 C26         -4.2770     0.8280     0.0800 cc         1 QL7      -0.367800
     25 C27         -4.8840    -0.4550    -0.0040 cc         1 QL7       0.419500
     26 N28         -6.2120    -0.4670     0.0770 nd         1 QL7      -0.574100
     27 N29         -6.4390     0.8840     0.2180 na         1 QL7       0.115900
     28 C30         -5.3130     1.6910     0.2240 cd         1 QL7       0.432500
     29 N31         -5.1960     3.0610     0.3460 nd         1 QL7      -0.610000
     30 C32         -6.4230     3.5690     0.4690 cc         1 QL7       0.382900
     31 C33         -7.6630     2.8210     0.4750 cc         1 QL7      -0.220000
     32 C34         -7.7080     1.4360     0.3480 cd         1 QL7      -0.034000
     33 F35          5.9500     0.3480     1.3720 f          1 QL7      -0.259000
     34 O36          7.5500     2.8980    -0.6680 oh         1 QL7      -0.667000
     35 H1           5.4240     2.1790     0.8200 h1         1 QL7       0.059700
     36 H2           5.4370     1.6490    -1.6250 h1         1 QL7       0.075200
     37 H3           5.9190    -0.0100    -1.2640 h1         1 QL7       0.075200
     38 H4           2.7210     2.0770    -1.5550 h1         1 QL7       0.064200
     39 H5           2.9010     2.1290     0.2280 h1         1 QL7       0.064200
     40 H6          -0.0240     1.8620    -0.3730 ha         1 QL7       0.158000
     41 H7           1.5020    -2.9060    -0.3880 ha         1 QL7       0.135000
     42 H8           8.0500     1.6440     2.4080 hc         1 QL7       0.047533
     43 H9           9.0390     2.8170     1.5220 hc         1 QL7       0.047533
     44 H10          7.3740     3.2280     1.9820 hc         1 QL7       0.047533
     45 H11          8.1790     0.3730    -1.2080 hc         1 QL7       0.047533
     46 H12          9.4920     1.0840    -0.2590 hc         1 QL7       0.047533
     47 H13          8.4410    -0.1410     0.4710 hc         1 QL7       0.047533
     48 H14         -1.2030    -3.2500    -2.1730 h1         1 QL7       0.052200
     49 H15         -0.3520    -4.3680    -1.0940 h1         1 QL7       0.052200
     50 H16         -3.3990    -3.9650    -1.2990 h1         1 QL7       0.049700
     51 H17         -2.4710    -5.4090    -1.7660 h1         1 QL7       0.049700
     52 H18         -3.6340    -3.4430     1.0920 h1         1 QL7       0.049700
     53 H19         -2.8510    -4.5130     2.2770 h1         1 QL7       0.049700
     54 H20         -0.6140    -3.7430     1.6300 h1         1 QL7       0.052200
     55 H21         -1.6150    -2.3170     1.9500 h1         1 QL7       0.052200
     56 H22         -2.5850    -0.8850    -0.1400 hn         1 QL7       0.181000
     57 H23         -4.3820    -1.4060    -0.1270 h4         1 QL7       0.052800
     58 H24         -6.4300     4.6460     0.5710 h4         1 QL7       0.038100
     59 H25         -8.5840     3.3840     0.5840 ha         1 QL7       0.147000
     60 H26         -8.5810     0.7940     0.3410 h4         1 QL7       0.167000
     61 H27          8.4810     3.2080    -0.7110 ho         1 QL7       0.448000
     62 N23         -2.0650    -0.0190    -0.1190 ns         1 QL7      -0.146000
@<TRIPOS>BOND
     1     1     3 1   
     2     1    12 1   
     3     1    33 1   
     4     1    35 1   
     5     2     6 ar  
     6     2     9 ar  
     7     2    14 1   
     8     3    13 1   
     9     3    36 1   
    10     3    37 1   
    11     4     7 ar  
    12     4     8 ar  
    13     4    62 1   
    14     5     6 1   
    15     5    13 1   
    16     5    38 1   
    17     5    39 1   
    18     6     7 ar  
    19     7    40 1   
    20     8     9 ar  
    21     8    16 1   
    22     9    41 1   
    23    10    12 1   
    24    10    42 1   
    25    10    43 1   
    26    10    44 1   
    27    11    12 1   
    28    11    45 1   
    29    11    46 1   
    30    11    47 1   
    31    12    34 1   
    32    13    14 1   
    33    14    15 2   
    34    16    17 1   
    35    16    21 1   
    36    17    18 1   
    37    17    48 1   
    38    17    49 1   
    39    18    19 1   
    40    18    50 1   
    41    18    51 1   
    42    19    20 1   
    43    20    21 1   
    44    20    52 1   
    45    20    53 1   
    46    21    54 1   
    47    21    55 1   
    48    22    23 2   
    49    22    24 1   
    50    22    62 1   
    51    24    25 1   
    52    24    28 2   
    53    25    26 2   
    54    25    57 1   
    55    26    27 1   
    56    27    28 1   
    57    27    32 1   
    58    28    29 1   
    59    29    30 2   
    60    30    31 1   
    61    30    58 1   
    62    31    32 2   
    63    31    59 1   
    64    32    60 1   
    65    34    61 1   
    66    56    62 1   
@<TRIPOS>SUBSTRUCTURE
     1 QL7         1 TEMP              0 ****  ****    0 ROOT
