@<TRIPOS>MOLECULE
QL7
   62    66     1     0     0
SMALL
bcc


@<TRIPOS>ATOM
      1 C4           5.8640     1.3520     0.4250 c3         1 QL7       0.166600
      2 C14          2.0460    -0.8920    -0.4010 ca         1 QL7      -0.195600
      3 C6           5.2670     0.7860    -0.8530 c3         1 QL7       0.090000
      4 C11         -0.6400    -0.2850    -0.2050 ca         1 QL7       0.130600
      5 C8           2.8070     1.3110    -0.6220 c5         1 QL7       0.141300
      6 C9           1.6170     0.4210    -0.4490 ca         1 QL7      -0.049300
      7 C10          0.2810     0.7560    -0.3490 ca         1 QL7      -0.155000
      8 C12         -0.2020    -1.6330    -0.1660 ca         1 QL7      -0.001400
      9 C13          1.1450    -1.9340    -0.2580 ca         1 QL7      -0.045000
     10 C3           7.7770     2.4320     1.6260 c3         1 QL7      -0.121600
     11 C1           8.2640     0.7820    -0.1900 c3         1 QL7      -0.121600
     12 C2           7.3030     1.8680     0.2880 c3         1 QL7       0.136800
     13 N7           3.9030     0.3660    -0.6720 n          1 QL7      -0.488800
     14 C15          3.5130    -0.9280    -0.5400 c          1 QL7       0.735100
     15 O16          4.2360    -1.9100    -0.5590 o          1 QL7      -0.617500
     16 N17         -1.2070    -2.6300    -0.0430 nh         1 QL7      -0.647000
     17 C18         -1.3190    -3.4990    -1.2110 c6         1 QL7       0.136300
     18 C19         -2.5330    -4.3940    -1.0480 c6         1 QL7       0.128400
     19 O20         -2.4630    -5.1480     0.1410 os         1 QL7      -0.398600
     20 C21         -2.3560    -4.3110     1.2700 c6         1 QL7       0.128400
     21 C22         -1.1360    -3.4130     1.1860 c6         1 QL7       0.136300
     22 C24         -2.7600     1.0110    -0.0720 c          1 QL7       0.732300
     23 O25         -2.2890     2.1340    -0.1520 o          1 QL7      -0.568100
     24 C26         -4.1970     0.7760     0.0650 cc         1 QL7      -0.367800
     25 C27         -4.9200    -0.4280     0.1330 cc         1 QL7       0.419500
     26 N28         -6.2190    -0.2490     0.2510 nd         1 QL7      -0.574100
     27 N29         -6.3750     1.0780     0.2620 na         1 QL7       0.065200
     28 C30         -5.1820     1.7640     0.1530 cd         1 QL7       0.432500
     29 N31         -5.1460     3.1000     0.1490 nd         1 QL7      -0.610000
     30 C32         -6.2880     3.7280     0.2530 cc         1 QL7       0.448200
     31 C33         -7.5370     3.0780     0.3650 cc         1 QL7      -0.303300
     32 C34         -7.5570     1.7190     0.3690 cd         1 QL7      -0.001300
     33 F35          5.8380     0.3510     1.3940 f          1 QL7      -0.240300
     34 O36          7.2000     2.9050    -0.6730 oh         1 QL7      -0.604800
     35 H1           5.2380     2.1720     0.7970 h1         1 QL7       0.059700
     36 H2           5.3080     1.5420    -1.6390 h1         1 QL7       0.075200
     37 H3           5.8420    -0.0740    -1.1960 h1         1 QL7       0.075200
     38 H4           2.7540     1.9000    -1.5430 h1         1 QL7       0.064200
     39 H5           2.9130     2.0130     0.2100 h1         1 QL7       0.064200
     40 H6          -0.0380     1.7850    -0.3850 ha         1 QL7       0.176000
     41 H7           1.4840    -2.9630    -0.2260 ha         1 QL7       0.153000
     42 H8           7.8400     1.6620     2.3930 hc         1 QL7       0.047533
     43 H9           8.7740     2.8640     1.5180 hc         1 QL7       0.047533
     44 H10          7.1070     3.2170     1.9820 hc         1 QL7       0.047533
     45 H11          7.9950     0.3990    -1.1750 hc         1 QL7       0.047533
     46 H12          9.2760     1.1870    -0.2600 hc         1 QL7       0.047533
     47 H13          8.2990    -0.0580     0.5040 hc         1 QL7       0.047533
     48 H14         -1.4360    -2.8880    -2.1070 h1         1 QL7       0.052200
     49 H15         -0.4200    -4.1180    -1.3440 h1         1 QL7       0.052200
     50 H16         -3.4430    -3.7760    -1.0610 h1         1 QL7       0.049700
     51 H17         -2.5930    -5.0970    -1.8800 h1         1 QL7       0.049700
     52 H18         -3.2570    -3.6880     1.3730 h1         1 QL7       0.049700
     53 H19         -2.2890    -4.9530     2.1500 h1         1 QL7       0.049700
     54 H20         -0.2210    -4.0230     1.2260 h1         1 QL7       0.052200
     55 H21         -1.1240    -2.7400     2.0450 h1         1 QL7       0.052200
     56 H22         -2.4650    -1.0300    -0.0070 hn         1 QL7       0.347500
     57 H23         -4.5440    -1.4410     0.0970 h4         1 QL7       0.052800
     58 H24         -6.2510     4.8110     0.2500 h4         1 QL7       0.038100
     59 H25         -8.4530     3.6420     0.4490 ha         1 QL7       0.165000
     60 H26         -8.4430     1.1070     0.4510 h4         1 QL7       0.185000
     61 H27          8.0710     3.3030    -0.7810 ho         1 QL7       0.409000
     62 N23         -2.0100    -0.1260    -0.0970 ns         1 QL7      -0.472100
@<TRIPOS>BOND
     1     1     3 1   
     2     1    12 1   
     3     1    33 1   
     4     1    35 1   
     5     2     6 ar  
     6     2     9 ar  
     7     2    14 1   
     8     3    13 1   
     9     3    36 1   
    10     3    37 1   
    11     4     7 ar  
    12     4     8 ar  
    13     4    62 1   
    14     5     6 1   
    15     5    13 1   
    16     5    38 1   
    17     5    39 1   
    18     6     7 ar  
    19     7    40 1   
    20     8     9 ar  
    21     8    16 1   
    22     9    41 1   
    23    10    12 1   
    24    10    42 1   
    25    10    43 1   
    26    10    44 1   
    27    11    12 1   
    28    11    45 1   
    29    11    46 1   
    30    11    47 1   
    31    12    34 1   
    32    13    14 1   
    33    14    15 2   
    34    16    17 1   
    35    16    21 1   
    36    17    18 1   
    37    17    48 1   
    38    17    49 1   
    39    18    19 1   
    40    18    50 1   
    41    18    51 1   
    42    19    20 1   
    43    20    21 1   
    44    20    52 1   
    45    20    53 1   
    46    21    54 1   
    47    21    55 1   
    48    22    23 2   
    49    22    24 1   
    50    22    62 1   
    51    24    25 1   
    52    24    28 2   
    53    25    26 2   
    54    25    57 1   
    55    26    27 1   
    56    27    28 1   
    57    27    32 1   
    58    28    29 1   
    59    29    30 2   
    60    30    31 1   
    61    30    58 1   
    62    31    32 2   
    63    31    59 1   
    64    32    60 1   
    65    34    61 1   
    66    56    62 1   
@<TRIPOS>SUBSTRUCTURE
     1 QL7         1 TEMP              0 ****  ****    0 ROOT
