@<TRIPOS>MOLECULE
QL8
  172   180     1     0     0
SMALL
abcg2


@<TRIPOS>ATOM
      1 C4          29.8940    46.5160     8.0470 cc         1 QL8       0.408300
      2 C6          30.8060    46.8480    11.7800 ca         1 QL8      -0.010000
      3 C7          31.3320    47.9750    12.4120 ca         1 QL8      -0.094500
      4 C8          31.4810    48.0090    13.7890 ca         1 QL8      -0.095000
      5 C10         30.5820    45.8010    13.9510 ca         1 QL8      -0.095000
      6 C15         27.9140    46.2120    17.5350 c5         1 QL8       0.035700
      7 C20         27.1680    45.2680    16.5810 c5         1 QL8      -0.129400
      8 C21         27.1840    48.0330    18.9280 c          1 QL8       0.605100
      9 C24         26.1060    48.9860    19.4430 c3         1 QL8       0.055700
     10 C14         28.9950    46.9900    16.7980 c          1 QL8       0.601100
     11 N13         30.2090    46.4220    16.8200 ns         1 QL8      -0.507900
     12 C9          31.1170    46.9240    14.5770 ca         1 QL8      -0.085300
     13 C11         30.4300    45.7610    12.5750 ca         1 QL8      -0.094500
     14 C2          30.6630    46.8050    10.3250 cc         1 QL8      -0.173000
     15 C1          31.5360    47.2030     9.3450 cd         1 QL8       0.294300
     16 C72         32.9060    47.7580     9.5500 c3         1 QL8      -0.119400
     17 N5          31.0790    47.0310     8.0660 nd         1 QL8      -0.639000
     18 S3          29.2260    46.1900     9.5900 ss         1 QL8      -0.027400
     19 C19         25.7570    45.2370    17.1550 c5         1 QL8       0.148300
     20 O22         25.6800    44.4630    18.3290 oh         1 QL8      -0.648000
     21 C18         25.5480    46.6880    17.5450 c5         1 QL8       0.113000
     22 N17         26.8640    47.0880    18.0300 n          1 QL8      -0.388800
     23 O23         28.3460    48.1770    19.2910 o          1 QL8      -0.621100
     24 C25         26.1010    50.3780    18.7220 c3         1 QL8      -0.041000
     25 C27         27.3880    51.1760    18.9370 c3         1 QL8      -0.095433
     26 C29         24.9340    51.1900    19.2770 c3         1 QL8      -0.095433
     27 N26         26.2980    49.0940    20.8690 ns         1 QL8      -0.490900
     28 C30         25.3300    48.9280    21.7890 c          1 QL8       0.620100
     29 O32         24.1650    48.6760    21.5140 o          1 QL8      -0.611100
     30 C31         25.7900    49.0870    23.2230 c3         1 QL8      -0.164400
     31 C33         25.1690    50.3140    23.8670 c3         1 QL8       0.165600
     32 O34         25.4730    51.4370    23.0700 os         1 QL8      -0.457000
     33 C35         25.5080    52.6670    23.7560 c3         1 QL8       0.117600
     34 C36         26.8210    52.9180    24.4740 c3         1 QL8       0.127600
     35 O37         27.9230    53.0970    23.6180 os         1 QL8      -0.444000
     36 C38         28.4620    51.9150    23.0800 c3         1 QL8       0.123600
     37 C71         29.8610    52.1780    22.5610 c3         1 QL8       0.152600
     38 O78         30.7670    52.7100    23.4940 os         1 QL8      -0.428000
     39 C79         31.0040    51.9000    24.6200 c3         1 QL8       0.162600
     40 C80         32.2180    52.4060    25.3560 c3         1 QL8       0.158600
     41 O81         33.3740    52.1720    24.5920 os         1 QL8      -0.434000
     42 C82         34.5380    52.6540    25.2100 c3         1 QL8       0.163600
     43 C83         35.7420    52.3280    24.3640 c3         1 QL8       0.164600
     44 O84         35.6600    53.0070    23.1390 os         1 QL8      -0.423000
     45 C85         36.7500    52.7510    22.2920 c3         1 QL8       0.161600
     46 C86         36.5490    53.4880    20.9940 c3         1 QL8       0.155600
     47 O87         36.6160    54.8770    21.2350 os         1 QL8      -0.443000
     48 C88         36.1400    55.6600    20.1700 c3         1 QL8       0.259700
     49 C89         34.6830    55.5900    20.0380 c1         1 QL8      -0.217100
     50 C90         33.4810    55.5100    19.9770 cg         1 QL8      -0.052000
     51 C75         32.0620    55.4170    19.9150 ca         1 QL8      -0.047000
     52 C76         31.2760    55.7510    21.0180 ca         1 QL8      -0.042000
     53 C77         29.8950    55.6600    20.9710 ca         1 QL8      -0.188000
     54 C74         31.4200    54.9930    18.7440 ca         1 QL8      -0.042000
     55 C73         30.0450    54.9030    18.6860 ca         1 QL8      -0.188000
     56 C70         29.2680    55.2270    19.8030 ca         1 QL8       0.173100
     57 O69         27.9430    55.1060    19.6590 os         1 QL8      -0.345100
     58 C68         27.1010    55.3010    20.7910 c3         1 QL8       0.155600
     59 C67         25.6820    54.9890    20.3830 c3         1 QL8      -0.079400
     60 C66         25.0880    55.9570    19.3580 c3         1 QL8       0.025900
     61 C63         23.7330    55.5170    18.9000 cc         1 QL8      -0.190300
     62 C64         22.5090    55.5290    19.5000 cd         1 QL8       0.272500
     63 C91         22.1850    56.1370    20.8550 c          1 QL8       0.628500
     64 O93         23.1210    56.7120    21.4470 o          1 QL8      -0.704000
     65 O92         21.0190    55.9890    21.2580 o          1 QL8      -0.704000
     66 S62         23.5920    54.7540    17.3430 ss         1 QL8      -0.243400
     67 C61         21.8930    54.5030    17.6350 cc         1 QL8       0.653300
     68 N65         21.4950    54.9430    18.7800 nd         1 QL8      -0.653000
     69 N46         21.0630    53.9150    16.7180 nh         1 QL8      -0.732300
     70 C47         19.9430    53.1670    17.2600 c6         1 QL8       0.201800
     71 C48         20.4430    51.8330    17.7910 c6         1 QL8      -0.075100
     72 C43         21.3790    51.1510    16.8250 ca         1 QL8      -0.061300
     73 C42         21.9480    51.8320    15.7460 ca         1 QL8      -0.045300
     74 C45         21.6000    53.2920    15.5300 c6         1 QL8       0.239100
     75 C44         21.6830    49.8050    17.0250 ca         1 QL8      -0.083000
     76 C39         22.5340    49.1270    16.1730 ca         1 QL8      -0.126000
     77 C40         23.1020    49.7950    15.1010 ca         1 QL8      -0.096000
     78 C41         22.8130    51.1390    14.8850 ca         1 QL8      -0.146600
     79 C49         23.3790    51.8110    13.6840 c          1 QL8       0.624700
     80 O50         22.7360    52.5480    12.9600 o          1 QL8      -0.569100
     81 N51         24.7010    51.5710    13.4500 ns         1 QL8      -0.396400
     82 C52         25.4200    52.0780    12.4000 cc         1 QL8       0.451800
     83 N53         26.6710    51.8080    12.2600 nd         1 QL8      -0.605100
     84 C54         27.1780    52.4350    11.1480 ca         1 QL8       0.128400
     85 C55         26.2540    53.2090    10.4320 ca         1 QL8      -0.227000
     86 S56         24.6980    53.1260    11.2030 ss         1 QL8       0.118800
     87 C57         28.4990    52.3560    10.7050 ca         1 QL8      -0.068000
     88 C58         28.8610    53.0500     9.5650 ca         1 QL8      -0.111000
     89 C59         27.9300    53.8210     8.8630 ca         1 QL8      -0.119000
     90 C60         26.6150    53.9070     9.2870 ca         1 QL8      -0.064000
     91 H1          29.3450    46.2910     7.1430 h5         1 QL8       0.050100
     92 H2          31.5850    48.8520    11.8300 ha         1 QL8       0.115500
     93 H3          31.8820    48.9000    14.2570 ha         1 QL8       0.113500
     94 H4          30.2860    44.9410    14.5390 ha         1 QL8       0.113500
     95 H5          28.3530    45.6470    18.3610 h1         1 QL8       0.068700
     96 H6          27.6350    44.2850    16.5230 hc         1 QL8       0.062700
     97 H7          27.1360    45.6820    15.5700 hc         1 QL8       0.062700
     98 H8          25.1170    48.5560    19.2920 h1         1 QL8       0.082700
     99 H9          26.6660    49.6880    16.7180 hc         1 QL8       0.043811
    100 H10         24.9310    49.6620    17.0410 hc         1 QL8       0.043811
    101 H11         25.7510    51.1890    16.7530 hc         1 QL8       0.043811
    102 H12         30.3530    45.5750    17.3450 hn         1 QL8       0.313500
    103 H13         32.2010    46.4010    16.3460 h1         1 QL8       0.058200
    104 H14         31.5000    48.0030    16.3820 h1         1 QL8       0.058200
    105 H15         30.0270    44.8670    12.1150 ha         1 QL8       0.115500
    106 H16         33.5790    47.3900     8.7760 hc         1 QL8       0.049700
    107 H17         32.9090    48.8490     9.4920 hc         1 QL8       0.049700
    108 H18         33.3150    47.4780    10.5180 hc         1 QL8       0.049700
    109 H19         25.0200    44.9200    16.4090 h1         1 QL8       0.050700
    110 H20         25.9340    43.5590    18.1150 ho         1 QL8       0.440000
    111 H21         25.2520    47.2680    16.6680 h1         1 QL8       0.070200
    112 H22         24.7720    46.7970    18.3020 h1         1 QL8       0.070200
    113 H23         27.5940    51.3550    19.9930 hc         1 QL8       0.043811
    114 H24         28.2560    50.6840    18.5000 hc         1 QL8       0.043811
    115 H25         27.2910    52.1560    18.4630 hc         1 QL8       0.043811
    116 H26         25.0690    51.4350    20.3300 hc         1 QL8       0.043811
    117 H27         24.8470    52.1280    18.7290 hc         1 QL8       0.043811
    118 H28         23.9870    50.6580    19.1660 hc         1 QL8       0.043811
    119 H29         27.2360    49.2760    21.1910 hn         1 QL8       0.326500
    120 H30         25.4800    48.2020    23.7840 hc         1 QL8       0.058700
    121 H31         26.8770    49.1480    23.2960 hc         1 QL8       0.058700
    122 H32         25.5700    50.4150    24.8810 h1         1 QL8       0.034200
    123 H33         24.0830    50.1930    23.9610 h1         1 QL8       0.034200
    124 H34         25.3470    53.4510    23.0110 h1         1 QL8       0.071200
    125 H35         24.6900    52.7460    24.4850 h1         1 QL8       0.071200
    126 H36         26.7150    53.8420    25.0500 h1         1 QL8       0.040700
    127 H37         27.0240    52.1150    25.1980 h1         1 QL8       0.040700
    128 H38         28.4700    51.1170    23.8360 h1         1 QL8       0.027700
    129 H39         27.8710    51.5380    22.2380 h1         1 QL8       0.027700
    130 H40         30.2300    51.2300    22.1440 h1         1 QL8       0.059700
    131 H41         29.8170    52.8950    21.7360 h1         1 QL8       0.059700
    132 H42         30.1570    51.9210    25.3170 h1         1 QL8       0.025200
    133 H43         31.1560    50.8500    24.3320 h1         1 QL8       0.025200
    134 H44         32.0980    53.4760    25.5780 h1         1 QL8       0.025700
    135 H45         32.2740    51.8860    26.3230 h1         1 QL8       0.025700
    136 H46         34.4750    53.7390    25.3750 h1         1 QL8       0.025700
    137 H47         34.6830    52.1930    26.1980 h1         1 QL8       0.025700
    138 H48         35.8080    51.2410    24.2100 h1         1 QL8       0.020700
    139 H49         36.6420    52.6230    24.9230 h1         1 QL8       0.020700
    140 H50         36.8370    51.6790    22.0660 h1         1 QL8       0.021700
    141 H51         37.6980    53.0550    22.7610 h1         1 QL8       0.021700
    142 H52         35.5790    53.2050    20.5640 h1         1 QL8       0.038200
    143 H53         37.3230    53.1780    20.2810 h1         1 QL8       0.038200
    144 H54         36.6050    55.3760    19.2170 h1         1 QL8       0.050700
    145 H55         36.4400    56.6910    20.3740 h1         1 QL8       0.050700
    146 H56         31.7510    56.1010    21.9270 ha         1 QL8       0.114500
    147 H57         29.3270    55.9240    21.8520 ha         1 QL8       0.130000
    148 H58         32.0080    54.7390    17.8710 ha         1 QL8       0.114500
    149 H59         29.5580    54.5570    17.7820 ha         1 QL8       0.130000
    150 H60         27.1860    56.3320    21.1530 h1         1 QL8       0.043200
    151 H61         27.4050    54.6300    21.6010 h1         1 QL8       0.043200
    152 H62         25.0610    55.0170    21.2790 hc         1 QL8       0.066200
    153 H63         25.6390    53.9660    20.0080 hc         1 QL8       0.066200
    154 H64         25.0230    56.9530    19.7980 hc         1 QL8       0.054700
    155 H65         25.7530    56.0380    18.4950 hc         1 QL8       0.054700
    156 H67         19.2220    53.0200    16.4540 h1         1 QL8       0.070700
    157 H68         19.4500    53.7440    18.0400 h1         1 QL8       0.070700
    158 H69         19.5990    51.1750    18.0090 hc         1 QL8       0.068700
    159 H70         20.9620    51.9900    18.7420 hc         1 QL8       0.068700
    160 H71         22.4550    53.8640    15.1690 h1         1 QL8       0.079700
    161 H72         20.8460    53.3700    14.7430 h1         1 QL8       0.079700
    162 H73         21.2360    49.2850    17.8630 ha         1 QL8       0.120000
    163 H74         22.7470    48.0780    16.3310 ha         1 QL8       0.107000
    164 H75         23.7620    49.2560    14.4330 ha         1 QL8       0.111000
    165 H76         25.2380    51.0290    14.1110 hn         1 QL8       0.350500
    166 H77         29.2180    51.7570    11.2490 ha         1 QL8       0.128000
    167 H78         29.8830    53.0000     9.2130 ha         1 QL8       0.110000
    168 H79         28.2380    54.3540     7.9730 ha         1 QL8       0.108000
    169 H80         25.8960    54.5070     8.7450 ha         1 QL8       0.119000
    170 C12         31.3140    46.9730    16.0720 c3         1 QL8       0.155300
    171 C28         25.8570    50.2090    17.2230 c3         1 QL8      -0.095433
    172 O16         28.7600    48.0170    16.1830 o          1 QL8      -0.572100
@<TRIPOS>BOND
     1     1    17 2   
     2     1    18 1   
     3     1    91 1   
     4     2     3 ar  
     5     2    13 ar  
     6     2    14 1   
     7     3     4 ar  
     8     3    92 1   
     9     4    12 ar  
    10     4    93 1   
    11     5    12 ar  
    12     5    13 ar  
    13     5    94 1   
    14     6     7 1   
    15     6    10 1   
    16     6    22 1   
    17     6    95 1   
    18     7    19 1   
    19     7    96 1   
    20     7    97 1   
    21     8     9 1   
    22     8    22 1   
    23     8    23 2   
    24     9    24 1   
    25     9    27 1   
    26     9    98 1   
    27    10    11 1   
    28    10   172 2   
    29    11   102 1   
    30    11   170 1   
    31    12   170 1   
    32    13   105 1   
    33    14    15 2   
    34    14    18 1   
    35    15    16 1   
    36    15    17 1   
    37    16   106 1   
    38    16   107 1   
    39    16   108 1   
    40    19    20 1   
    41    19    21 1   
    42    19   109 1   
    43    20   110 1   
    44    21    22 1   
    45    21   111 1   
    46    21   112 1   
    47    24    25 1   
    48    24    26 1   
    49    24   171 1   
    50    25   113 1   
    51    25   114 1   
    52    25   115 1   
    53    26   116 1   
    54    26   117 1   
    55    26   118 1   
    56    27    28 1   
    57    27   119 1   
    58    28    29 2   
    59    28    30 1   
    60    30    31 1   
    61    30   120 1   
    62    30   121 1   
    63    31    32 1   
    64    31   122 1   
    65    31   123 1   
    66    32    33 1   
    67    33    34 1   
    68    33   124 1   
    69    33   125 1   
    70    34    35 1   
    71    34   126 1   
    72    34   127 1   
    73    35    36 1   
    74    36    37 1   
    75    36   128 1   
    76    36   129 1   
    77    37    38 1   
    78    37   130 1   
    79    37   131 1   
    80    38    39 1   
    81    39    40 1   
    82    39   132 1   
    83    39   133 1   
    84    40    41 1   
    85    40   134 1   
    86    40   135 1   
    87    41    42 1   
    88    42    43 1   
    89    42   136 1   
    90    42   137 1   
    91    43    44 1   
    92    43   138 1   
    93    43   139 1   
    94    44    45 1   
    95    45    46 1   
    96    45   140 1   
    97    45   141 1   
    98    46    47 1   
    99    46   142 1   
   100    46   143 1   
   101    47    48 1   
   102    48    49 1   
   103    48   144 1   
   104    48   145 1   
   105    49    50 3   
   106    50    51 1   
   107    51    52 ar  
   108    51    54 ar  
   109    52    53 ar  
   110    52   146 1   
   111    53    56 ar  
   112    53   147 1   
   113    54    55 ar  
   114    54   148 1   
   115    55    56 ar  
   116    55   149 1   
   117    56    57 1   
   118    57    58 1   
   119    58    59 1   
   120    58   150 1   
   121    58   151 1   
   122    59    60 1   
   123    59   152 1   
   124    59   153 1   
   125    60    61 1   
   126    60   154 1   
   127    60   155 1   
   128    61    62 2   
   129    61    66 1   
   130    62    63 1   
   131    62    68 1   
   132    63    64 1   
   133    63    65 1   
   134    66    67 1   
   135    67    68 2   
   136    67    69 1   
   137    69    70 1   
   138    69    74 1   
   139    70    71 1   
   140    70   156 1   
   141    70   157 1   
   142    71    72 1   
   143    71   158 1   
   144    71   159 1   
   145    72    73 ar  
   146    72    75 ar  
   147    73    74 1   
   148    73    78 ar  
   149    74   160 1   
   150    74   161 1   
   151    75    76 ar  
   152    75   162 1   
   153    76    77 ar  
   154    76   163 1   
   155    77    78 ar  
   156    77   164 1   
   157    78    79 1   
   158    79    80 2   
   159    79    81 1   
   160    81    82 1   
   161    81   165 1   
   162    82    83 2   
   163    82    86 1   
   164    83    84 1   
   165    84    85 ar  
   166    84    87 ar  
   167    85    86 1   
   168    85    90 ar  
   169    87    88 ar  
   170    87   166 1   
   171    88    89 ar  
   172    88   167 1   
   173    89    90 ar  
   174    89   168 1   
   175    90   169 1   
   176    99   171 1   
   177   100   171 1   
   178   101   171 1   
   179   103   170 1   
   180   104   170 1   
@<TRIPOS>SUBSTRUCTURE
     1 QL8         1 TEMP              0 ****  ****    0 ROOT
