@<TRIPOS>MOLECULE
QL8
  172   180     1     0     0
SMALL
No Charge or Current Charge


@<TRIPOS>ATOM
      1 C4          28.0020    46.1660     6.7600 cc         1 QL8       0.408300
      2 C6          28.9290    46.6940    10.4560 ca         1 QL8      -0.010000
      3 C7          29.3630    47.9010    11.0340 ca         1 QL8      -0.094500
      4 C8          29.5930    47.9880    12.4180 ca         1 QL8      -0.095000
      5 C10         28.9520    45.6590    12.6670 ca         1 QL8      -0.095000
      6 C15         26.5030    46.5640    16.8260 c5         1 QL8       0.035700
      7 C20         25.3700    46.1420    15.8450 c5         1 QL8      -0.129400
      8 C21         26.3630    47.9650    18.9280 c          1 QL8       0.605100
      9 C24         25.5430    48.9310    19.8560 c3         1 QL8       0.055700
     10 C14         27.5700    47.3900    16.0370 c          1 QL8       0.601100
     11 N13         28.5250    46.5300    15.5380 ns         1 QL8      -0.507900
     12 C9          29.3950    46.8650    13.2430 ca         1 QL8      -0.085300
     13 C11         28.7130    45.5780    11.2840 ca         1 QL8      -0.094500
     14 C2          28.6810    46.5870     9.0190 cc         1 QL8      -0.173000
     15 C1          29.6310    46.9220     8.0740 cd         1 QL8       0.294300
     16 C72         31.0140    47.4660     8.3180 c3         1 QL8      -0.119400
     17 N5          29.2290    46.6810     6.7670 nd         1 QL8      -0.639000
     18 S3          27.2460    45.9110     8.3120 ss         1 QL8      -0.027400
     19 C19         24.2020    45.8110    16.8050 c5         1 QL8       0.148300
     20 O22         24.3930    44.5450    17.4440 oh         1 QL8      -0.648000
     21 C18         24.2800    46.9980    17.8130 c5         1 QL8       0.113000
     22 N17         25.7270    47.3390    17.8320 n          1 QL8      -0.388800
     23 O23         27.5600    47.7710    19.1230 o          1 QL8      -0.621100
     24 C25         25.4030    50.3980    19.2940 c3         1 QL8      -0.041000
     25 C27         26.7990    51.0460    19.0700 c3         1 QL8      -0.095433
     26 C29         24.5980    51.2850    20.2860 c3         1 QL8      -0.095433
     27 N26         26.1640    48.9260    21.2040 ns         1 QL8      -0.490900
     28 C30         25.4930    48.7640    22.3950 c          1 QL8       0.620100
     29 O32         24.2900    48.5520    22.4480 o          1 QL8      -0.611100
     30 C31         26.3760    48.7990    23.6400 c3         1 QL8      -0.164400
     31 C33         26.1470    50.0870    24.4420 c3         1 QL8       0.165600
     32 O34         26.4790    51.1920    23.5840 os         1 QL8      -0.457000
     33 C35         26.3130    52.5110    24.1540 c3         1 QL8       0.117600
     34 C36         27.4630    52.8440    25.1490 c3         1 QL8       0.127600
     35 O37         28.6580    53.2630    24.4460 os         1 QL8      -0.444000
     36 C38         29.3170    52.2570    23.6460 c3         1 QL8       0.123600
     37 C71         30.7020    52.7940    23.1930 c3         1 QL8       0.152600
     38 O78         31.5660    53.0470    24.3280 os         1 QL8      -0.428000
     39 C79         31.9790    51.8910    25.0910 c3         1 QL8       0.162600
     40 C80         32.9600    52.3460    26.1980 c3         1 QL8       0.158600
     41 O81         34.2350    52.6600    25.6030 os         1 QL8      -0.434000
     42 C82         35.2080    53.1890    26.5260 c3         1 QL8       0.163600
     43 C83         36.5280    53.4780    25.7710 c3         1 QL8       0.164600
     44 O84         36.3100    54.5600    24.8460 os         1 QL8      -0.423000
     45 C85         37.4820    54.9800    24.1200 c3         1 QL8       0.161600
     46 C86         37.0620    56.0410    23.0760 c3         1 QL8       0.155600
     47 O87         36.6650    57.2520    23.7630 os         1 QL8      -0.443000
     48 C88         36.1130    58.2890    22.9270 c3         1 QL8       0.259700
     49 C89         34.7520    57.9120    22.5140 c1         1 QL8      -0.217100
     50 C90         33.6430    57.5420    22.1820 cg         1 QL8      -0.052000
     51 C75         32.3440    57.0770    21.7960 ca         1 QL8      -0.047000
     52 C76         31.3400    56.8970    22.7650 ca         1 QL8      -0.042000
     53 C77         30.0700    56.4230    22.3900 ca         1 QL8      -0.188000
     54 C74         32.0730    56.7810    20.4470 ca         1 QL8      -0.042000
     55 C73         30.8050    56.3040    20.0730 ca         1 QL8      -0.188000
     56 C70         29.8010    56.1210    21.0370 ca         1 QL8       0.173100
     57 O69         28.5840    55.6340    20.6110 os         1 QL8      -0.345100
     58 C68         27.5000    55.3860    21.5220 c3         1 QL8       0.155600
     59 C67         26.3270    54.7880    20.7210 c3         1 QL8      -0.079400
     60 C66         25.7320    55.7450    19.6630 c3         1 QL8       0.025900
     61 C63         24.5590    55.1380    18.9270 cc         1 QL8      -0.190300
     62 C64         23.2120    55.0320    19.2890 cd         1 QL8       0.272500
     63 C91         22.6410    55.5850    20.6070 c          1 QL8       0.628500
     64 O93         23.3600    56.1660    21.4120 o          1 QL8      -0.704000
     65 O92         21.4440    55.4370    20.8350 o          1 QL8      -0.704000
     66 S62         24.8550    54.4320    17.3630 ss         1 QL8      -0.243400
     67 C61         23.1790    53.9720    17.3010 cc         1 QL8       0.653300
     68 N65         22.4450    54.3560    18.3240 nd         1 QL8      -0.653000
     69 N46         22.6410    53.2670    16.2400 nh         1 QL8      -0.732300
     70 C47         21.2210    52.8480    16.2100 c6         1 QL8       0.201800
     71 C48         21.1430    51.3550    16.5620 c6         1 QL8      -0.075100
     72 C43         22.0200    50.5120    15.6360 ca         1 QL8      -0.061300
     73 C42         23.1340    51.0870    14.9670 ca         1 QL8      -0.045300
     74 C45         23.4870    52.5790    15.2180 c6         1 QL8       0.239100
     75 C44         21.6910    49.1600    15.4460 ca         1 QL8      -0.083000
     76 C39         22.4430    48.3700    14.5730 ca         1 QL8      -0.126000
     77 C40         23.5230    48.9270    13.8770 ca         1 QL8      -0.096000
     78 C41         23.8900    50.2850    14.0550 ca         1 QL8      -0.146600
     79 C49         25.0650    50.8380    13.2610 c          1 QL8       0.624700
     80 O50         25.7770    51.7410    13.6690 o          1 QL8      -0.569100
     81 N51         25.2870    50.2260    12.0520 ns         1 QL8      -0.396400
     82 C52         26.2840    50.4550    11.1360 cc         1 QL8       0.451800
     83 N53         26.1690    49.8180     9.9670 nd         1 QL8      -0.605100
     84 C54         27.2520    50.1890     9.1790 ca         1 QL8       0.128400
     85 C55         28.1510    51.0710     9.7430 ca         1 QL8      -0.227000
     86 S56         27.6980    51.5230    11.3760 ss         1 QL8       0.118800
     87 C57         27.4610    49.7190     7.8730 ca         1 QL8      -0.068000
     88 C58         28.5940    50.1510     7.1540 ca         1 QL8      -0.111000
     89 C59         29.5080    51.0480     7.7440 ca         1 QL8      -0.119000
     90 C60         29.2890    51.5170     9.0530 ca         1 QL8      -0.064000
     91 H1          27.4600    45.8920     5.8630 h5         1 QL8       0.050100
     92 H2          29.5210    48.7770    10.4120 ha         1 QL8       0.115500
     93 H3          29.9320    48.9290    12.8460 ha         1 QL8       0.113500
     94 H4          28.7960    44.7800    13.2880 ha         1 QL8       0.113500
     95 H5          26.9810    45.6960    17.2980 h1         1 QL8       0.068700
     96 H6          25.6560    45.2970    15.2070 hc         1 QL8       0.062700
     97 H7          25.0980    46.9680    15.1780 hc         1 QL8       0.062700
     98 H8          24.5360    48.5080    19.9490 h1         1 QL8       0.082700
     99 H9          25.1800    49.8640    17.1630 hc         1 QL8       0.043811
    100 H10         23.6420    49.9730    18.0590 hc         1 QL8       0.043811
    101 H11         24.5130    51.4340    17.5940 hc         1 QL8       0.043811
    102 H12         28.4100    45.5450    15.7390 hn         1 QL8       0.313500
    103 H13         30.5230    46.2900    14.9790 h1         1 QL8       0.058200
    104 H14         29.9640    47.9690    15.0150 h1         1 QL8       0.058200
    105 H15         28.3730    44.6390    10.8540 ha         1 QL8       0.115500
    106 H16         31.6730    47.2800     7.4630 hc         1 QL8       0.049700
    107 H17         30.9850    48.5480     8.4860 hc         1 QL8       0.049700
    108 H18         31.4740    46.9970     9.1960 hc         1 QL8       0.049700
    109 H19         23.2380    45.8150    16.2760 h1         1 QL8       0.050700
    110 H20         24.3060    43.8570    16.7480 ho         1 QL8       0.440000
    111 H21         23.6810    47.8410    17.4490 h1         1 QL8       0.070200
    112 H22         23.9040    46.7070    18.8030 h1         1 QL8       0.070200
    113 H23         27.3620    51.1160    20.0090 hc         1 QL8       0.043811
    114 H24         27.3970    50.4700    18.3550 hc         1 QL8       0.043811
    115 H25         26.6960    52.0600    18.6660 hc         1 QL8       0.043811
    116 H26         25.1350    51.4240    21.2300 hc         1 QL8       0.043811
    117 H27         24.4180    52.2810    19.8650 hc         1 QL8       0.043811
    118 H28         23.6230    50.8360    20.5100 hc         1 QL8       0.043811
    119 H29         27.1660    49.0570    21.2650 hn         1 QL8       0.326500
    120 H30         26.1180    47.9500    24.2820 hc         1 QL8       0.058700
    121 H31         27.4360    48.7480    23.3640 hc         1 QL8       0.058700
    122 H32         26.7820    50.0700    25.3370 h1         1 QL8       0.034200
    123 H33         25.0980    50.1430    24.7610 h1         1 QL8       0.034200
    124 H34         26.3020    53.2690    23.3630 h1         1 QL8       0.071200
    125 H35         25.3520    52.5820    24.6810 h1         1 QL8       0.071200
    126 H36         27.1220    53.6650    25.7920 h1         1 QL8       0.040700
    127 H37         27.6730    51.9900    25.8050 h1         1 QL8       0.040700
    128 H38         29.4350    51.3200    24.2030 h1         1 QL8       0.027700
    129 H39         28.7280    52.0390    22.7460 h1         1 QL8       0.027700
    130 H40         31.1640    52.0640    22.5150 h1         1 QL8       0.059700
    131 H41         30.5500    53.7170    22.6210 h1         1 QL8       0.059700
    132 H42         31.1160    51.4160    25.5730 h1         1 QL8       0.025200
    133 H43         32.4670    51.1460    24.4480 h1         1 QL8       0.025200
    134 H44         32.5420    53.2180    26.7190 h1         1 QL8       0.025700
    135 H45         33.0740    51.5350    26.9280 h1         1 QL8       0.025700
    136 H46         34.8440    54.1140    26.9910 h1         1 QL8       0.025700
    137 H47         35.4090    52.4630    27.3250 h1         1 QL8       0.025700
    138 H48         36.8580    52.5720    25.2450 h1         1 QL8       0.020700
    139 H49         37.3010    53.7510    26.5010 h1         1 QL8       0.020700
    140 H50         37.9310    54.1270    23.5940 h1         1 QL8       0.021700
    141 H51         38.2360    55.4010    24.7980 h1         1 QL8       0.021700
    142 H52         36.2440    55.6330    22.4680 h1         1 QL8       0.038200
    143 H53         37.9110    56.2430    22.4090 h1         1 QL8       0.038200
    144 H54         36.7370    58.4580    22.0390 h1         1 QL8       0.050700
    145 H55         36.0580    59.2330    23.4840 h1         1 QL8       0.050700
    146 H56         31.5440    57.1190    23.8110 ha         1 QL8       0.114500
    147 H57         29.3170    56.2880    23.1600 ha         1 QL8       0.130000
    148 H58         32.8450    56.9140    19.6910 ha         1 QL8       0.114500
    149 H59         30.5990    56.0710    19.0320 ha         1 QL8       0.130000
    150 H60         27.1790    56.3140    22.0130 h1         1 QL8       0.043200
    151 H61         27.8080    54.6700    22.2940 h1         1 QL8       0.043200
    152 H62         25.5390    54.4960    21.4240 hc         1 QL8       0.066200
    153 H63         26.6640    53.8680    20.2320 hc         1 QL8       0.066200
    154 H64         25.4530    56.6970    20.1290 hc         1 QL8       0.054700
    155 H65         26.5170    55.9990    18.9400 hc         1 QL8       0.054700
    156 H67         20.8040    53.0040    15.2040 h1         1 QL8       0.070700
    157 H68         20.5960    53.4270    16.9040 h1         1 QL8       0.070700
    158 H69         20.0970    51.0260    16.5010 hc         1 QL8       0.068700
    159 H70         21.4570    51.2060    17.6040 hc         1 QL8       0.068700
    160 H71         24.5400    52.6130    15.5230 h1         1 QL8       0.079700
    161 H72         23.4190    53.1200    14.2630 h1         1 QL8       0.079700
    162 H73         20.8430    48.7240    15.9700 ha         1 QL8       0.120000
    163 H74         22.1830    47.3240    14.4280 ha         1 QL8       0.107000
    164 H75         24.0880    48.2750    13.2150 ha         1 QL8       0.111000
    165 H76         24.5940    49.5450    11.7860 hn         1 QL8       0.350500
    166 H77         26.7540    49.0270     7.4230 ha         1 QL8       0.128000
    167 H78         28.7650    49.7870     6.1430 ha         1 QL8       0.110000
    168 H79         30.3830    51.3770     7.1880 ha         1 QL8       0.108000
    169 H80         29.9890    52.2090     9.5180 ha         1 QL8       0.119000
    170 C12         29.6770    46.9460    14.7380 c3         1 QL8       0.155300
    171 C28         24.6420    50.4080    17.9470 c3         1 QL8      -0.095433
    172 O16         27.6000    48.6020    15.8670 o          1 QL8      -0.572100
@<TRIPOS>BOND
     1     1    17 2   
     2     1    18 1   
     3     1    91 1   
     4     2     3 ar  
     5     2    13 ar  
     6     2    14 1   
     7     3     4 ar  
     8     3    92 1   
     9     4    12 ar  
    10     4    93 1   
    11     5    12 ar  
    12     5    13 ar  
    13     5    94 1   
    14     6     7 1   
    15     6    10 1   
    16     6    22 1   
    17     6    95 1   
    18     7    19 1   
    19     7    96 1   
    20     7    97 1   
    21     8     9 1   
    22     8    22 1   
    23     8    23 2   
    24     9    24 1   
    25     9    27 1   
    26     9    98 1   
    27    10    11 1   
    28    10   172 2   
    29    11   102 1   
    30    11   170 1   
    31    12   170 1   
    32    13   105 1   
    33    14    15 2   
    34    14    18 1   
    35    15    16 1   
    36    15    17 1   
    37    16   106 1   
    38    16   107 1   
    39    16   108 1   
    40    19    20 1   
    41    19    21 1   
    42    19   109 1   
    43    20   110 1   
    44    21    22 1   
    45    21   111 1   
    46    21   112 1   
    47    24    25 1   
    48    24    26 1   
    49    24   171 1   
    50    25   113 1   
    51    25   114 1   
    52    25   115 1   
    53    26   116 1   
    54    26   117 1   
    55    26   118 1   
    56    27    28 1   
    57    27   119 1   
    58    28    29 2   
    59    28    30 1   
    60    30    31 1   
    61    30   120 1   
    62    30   121 1   
    63    31    32 1   
    64    31   122 1   
    65    31   123 1   
    66    32    33 1   
    67    33    34 1   
    68    33   124 1   
    69    33   125 1   
    70    34    35 1   
    71    34   126 1   
    72    34   127 1   
    73    35    36 1   
    74    36    37 1   
    75    36   128 1   
    76    36   129 1   
    77    37    38 1   
    78    37   130 1   
    79    37   131 1   
    80    38    39 1   
    81    39    40 1   
    82    39   132 1   
    83    39   133 1   
    84    40    41 1   
    85    40   134 1   
    86    40   135 1   
    87    41    42 1   
    88    42    43 1   
    89    42   136 1   
    90    42   137 1   
    91    43    44 1   
    92    43   138 1   
    93    43   139 1   
    94    44    45 1   
    95    45    46 1   
    96    45   140 1   
    97    45   141 1   
    98    46    47 1   
    99    46   142 1   
   100    46   143 1   
   101    47    48 1   
   102    48    49 1   
   103    48   144 1   
   104    48   145 1   
   105    49    50 3   
   106    50    51 1   
   107    51    52 ar  
   108    51    54 ar  
   109    52    53 ar  
   110    52   146 1   
   111    53    56 ar  
   112    53   147 1   
   113    54    55 ar  
   114    54   148 1   
   115    55    56 ar  
   116    55   149 1   
   117    56    57 1   
   118    57    58 1   
   119    58    59 1   
   120    58   150 1   
   121    58   151 1   
   122    59    60 1   
   123    59   152 1   
   124    59   153 1   
   125    60    61 1   
   126    60   154 1   
   127    60   155 1   
   128    61    62 2   
   129    61    66 1   
   130    62    63 1   
   131    62    68 1   
   132    63    64 1   
   133    63    65 1   
   134    66    67 1   
   135    67    68 2   
   136    67    69 1   
   137    69    70 1   
   138    69    74 1   
   139    70    71 1   
   140    70   156 1   
   141    70   157 1   
   142    71    72 1   
   143    71   158 1   
   144    71   159 1   
   145    72    73 ar  
   146    72    75 ar  
   147    73    74 1   
   148    73    78 ar  
   149    74   160 1   
   150    74   161 1   
   151    75    76 ar  
   152    75   162 1   
   153    76    77 ar  
   154    76   163 1   
   155    77    78 ar  
   156    77   164 1   
   157    78    79 1   
   158    79    80 2   
   159    79    81 1   
   160    81    82 1   
   161    81   165 1   
   162    82    83 2   
   163    82    86 1   
   164    83    84 1   
   165    84    85 ar  
   166    84    87 ar  
   167    85    86 1   
   168    85    90 ar  
   169    87    88 ar  
   170    87   166 1   
   171    88    89 ar  
   172    88   167 1   
   173    89    90 ar  
   174    89   168 1   
   175    90   169 1   
   176    99   171 1   
   177   100   171 1   
   178   101   171 1   
   179   103   170 1   
   180   104   170 1   
@<TRIPOS>SUBSTRUCTURE
     1 QL8         1 TEMP              0 ****  ****    0 ROOT
