@<TRIPOS>MOLECULE
QL9
   28    28     1     0     0
SMALL
abcg2


@<TRIPOS>ATOM
      1 C1          14.0250    19.1590     0.5840 c3         1 QL9       0.083300
      2 C10         19.5250    20.6990     1.7890 ca         1 QL9       0.023100
      3 C11         18.2880    20.3320     1.2820 ca         1 QL9      -0.084000
      4 C2          15.7190    18.5200     2.2850 c3         1 QL9       0.116000
      5 C3          14.7510    18.4030     3.4590 c3         1 QL9       0.058600
      6 C4          15.8100    20.6950     1.0910 c          1 QL9       0.610700
      7 C5          17.1450    20.9990     1.7140 ca         1 QL9      -0.107600
      8 C6          17.2450    22.0300     2.6480 ca         1 QL9      -0.065000
      9 C7          18.4820    22.3700     3.1600 ca         1 QL9      -0.058000
     10 C8          19.6480    21.7150     2.7420 ca         1 QL9      -0.164600
     11 C9          20.9420    22.1260     3.3250 c          1 QL9       0.578500
     12 N1          15.2760    19.4690     1.2680 n          1 QL9      -0.402800
     13 O1          15.2720    21.5670     0.4050 o          1 QL9      -0.583100
     14 S1          14.6120    20.0110     4.3350 sh         1 QL9      -0.457800
     15 H1          13.9250    18.0770     0.5210 h1         1 QL9       0.046700
     16 H2          13.1650    19.5660     1.1210 h1         1 QL9       0.046700
     17 H3          14.0430    19.5820    -0.4170 h1         1 QL9       0.046700
     18 H4          18.2120    19.5350     0.5550 ha         1 QL9       0.137000
     19 H5          15.8130    17.5350     1.8210 h1         1 QL9       0.065700
     20 H6          16.7020    18.8090     2.6450 h1         1 QL9       0.065700
     21 H7          13.7610    18.1030     3.1210 h1         1 QL9       0.066700
     22 H8          15.1290    17.6490     4.1470 h1         1 QL9       0.066700
     23 H9          16.3560    22.5520     2.9730 ha         1 QL9       0.142000
     24 H10         18.5760    23.1560     3.8970 ha         1 QL9       0.143000
     25 H11         21.8280    21.5840     2.9620 h4         1 QL9       0.013200
     26 H14         13.5780    19.6690     5.1210 hs         1 QL9       0.220800
     27 O2          21.0570    23.0040     4.1570 o          1 QL9      -0.510100
     28 BR1         21.0500    19.7480     1.1220 br         1 QL9      -0.098100
@<TRIPOS>BOND
     1     1    12 1   
     2     1    15 1   
     3     1    16 1   
     4     1    17 1   
     5     2     3 ar  
     6     2    10 ar  
     7     2    28 1   
     8     3     7 ar  
     9     3    18 1   
    10     4     5 1   
    11     4    12 1   
    12     4    19 1   
    13     4    20 1   
    14     5    14 1   
    15     5    21 1   
    16     5    22 1   
    17     6     7 1   
    18     6    12 1   
    19     6    13 2   
    20     7     8 ar  
    21     8     9 ar  
    22     8    23 1   
    23     9    10 ar  
    24     9    24 1   
    25    10    11 1   
    26    11    25 1   
    27    11    27 2   
    28    14    26 1   
@<TRIPOS>SUBSTRUCTURE
     1 QL9         1 TEMP              0 ****  ****    0 ROOT
