@<TRIPOS>MOLECULE
QL9
   28    28     1     0     0
SMALL
No Charge or Current Charge


@<TRIPOS>ATOM
      1 C1          14.0620    19.1790     0.5020 c3         1 QL9       0.083300
      2 C10         19.5040    20.6090     1.9730 ca         1 QL9       0.023100
      3 C11         18.2020    20.2950     1.5460 ca         1 QL9      -0.084000
      4 C2          15.7130    18.4860     2.2750 c3         1 QL9       0.116000
      5 C3          14.6490    18.1960     3.3590 c3         1 QL9       0.058600
      6 C4          15.7110    20.8450     1.3610 c          1 QL9       0.610700
      7 C5          17.1160    21.1500     1.8350 ca         1 QL9      -0.107600
      8 C6          17.3710    22.3530     2.5240 ca         1 QL9      -0.065000
      9 C7          18.6700    22.6720     2.9530 ca         1 QL9      -0.058000
     10 C8          19.7530    21.8030     2.6890 ca         1 QL9      -0.164600
     11 C9          21.1380    22.1720     3.1650 c          1 QL9       0.578500
     12 N1          15.2930    19.4950     1.2620 n          1 QL9      -0.402800
     13 O1          14.9830    21.7520     0.9720 o          1 QL9      -0.583100
     14 S1          14.2020    19.6740     4.3910 sh         1 QL9      -0.457800
     15 H1          13.9650    18.0940     0.3690 h1         1 QL9       0.046700
     16 H2          13.1840    19.5550     1.0420 h1         1 QL9       0.046700
     17 H3          14.1040    19.6500    -0.4890 h1         1 QL9       0.046700
     18 H4          18.0420    19.3850     0.9720 ha         1 QL9       0.137000
     19 H5          15.9510    17.5500     1.7540 h1         1 QL9       0.065700
     20 H6          16.6220    18.8060     2.7950 h1         1 QL9       0.065700
     21 H7          13.7370    17.8080     2.8880 h1         1 QL9       0.066700
     22 H8          15.0330    17.4160     4.0290 h1         1 QL9       0.066700
     23 H9          16.5560    23.0410     2.7380 ha         1 QL9       0.142000
     24 H10         18.8320    23.6030     3.4930 ha         1 QL9       0.143000
     25 H11         21.9590    21.4600     2.9380 h4         1 QL9       0.013200
     26 H14         13.2980    19.0390     5.1800 hs         1 QL9       0.220800
     27 O2          21.3800    23.2070     3.7800 o          1 QL9      -0.510100
     28 Br1         20.9040    19.3690     1.5370 br         1 QL9      -0.098100
@<TRIPOS>BOND
     1     1    12 1   
     2     1    15 1   
     3     1    16 1   
     4     1    17 1   
     5     2     3 ar  
     6     2    10 ar  
     7     2    28 1   
     8     3     7 ar  
     9     3    18 1   
    10     4     5 1   
    11     4    12 1   
    12     4    19 1   
    13     4    20 1   
    14     5    14 1   
    15     5    21 1   
    16     5    22 1   
    17     6     7 1   
    18     6    12 1   
    19     6    13 2   
    20     7     8 ar  
    21     8     9 ar  
    22     8    23 1   
    23     9    10 ar  
    24     9    24 1   
    25    10    11 1   
    26    11    25 1   
    27    11    27 2   
    28    14    26 1   
@<TRIPOS>SUBSTRUCTURE
     1 QL9         1 TEMP              0 ****  ****    0 ROOT
