@<TRIPOS>MOLECULE
QLA
   31    33     1     0     0
SMALL
abcg2


@<TRIPOS>ATOM
      1 C1          15.9040    29.2370    64.2520 c          1 QLA       0.562900
      2 O1          15.3820    29.2750    63.1510 o          1 QLA      -0.528100
      3 C2          16.1660    30.5010    64.9500 cc         1 QLA      -0.031100
      4 O2          15.7750    31.6140    64.3310 oh         1 QLA      -0.504100
      5 C3          16.7950    30.5450    66.1520 cd         1 QLA       0.032800
      6 O3          17.5940    29.3320    67.9800 o          1 QLA      -0.518100
      7 C4          17.5930    32.8800    66.2780 ca         1 QLA       0.299000
      8 C5          18.2660    32.9200    65.0570 ca         1 QLA      -0.120500
      9 C6          18.7660    34.1180    64.5700 ca         1 QLA      -0.123500
     10 C7          18.6050    35.2690    65.3160 ca         1 QLA       0.141000
     11 C8          17.9610    35.2560    66.5370 ca         1 QLA      -0.123500
     12 C9          17.4500    34.0590    67.0110 ca         1 QLA      -0.120500
     13 C10         17.1080    29.2880    66.8670 c          1 QLA       0.581900
     14 C11         16.8130    27.9960    66.2030 ca         1 QLA      -0.129600
     15 C12         17.1130    26.8050    66.8490 ca         1 QLA      -0.062000
     16 C13         16.8540    25.5940    66.2220 ca         1 QLA      -0.094000
     17 C14         16.2960    25.5700    64.9520 ca         1 QLA      -0.096000
     18 C15         15.9900    26.7590    64.3030 ca         1 QLA      -0.060000
     19 C16         16.2480    27.9710    64.9260 ca         1 QLA      -0.130600
     20 F1          19.0930    36.4310    64.8440 f          1 QLA      -0.182000
     21 N1          17.1020    31.6950    66.8260 nu         1 QLA      -0.821000
     22 H1          15.3890    31.3710    63.4750 ho         1 QLA       0.485000
     23 H2          18.4330    32.0150    64.4890 ha         1 QLA       0.121500
     24 H3          19.2910    34.1460    63.6230 ha         1 QLA       0.130500
     25 H4          17.8450    36.1670    67.1090 ha         1 QLA       0.130500
     26 H5          16.9260    34.0410    67.9590 ha         1 QLA       0.121500
     27 H6          17.5510    26.8200    67.8380 ha         1 QLA       0.140000
     28 H7          17.0910    24.6670    66.7260 ha         1 QLA       0.124000
     29 H8          16.0950    24.6250    64.4660 ha         1 QLA       0.124000
     30 H9          15.5480    26.7390    63.3160 ha         1 QLA       0.140000
     31 H10         17.2350    31.5850    67.8200 hn         1 QLA       0.508000
@<TRIPOS>BOND
     1     1     2 2   
     2     1     3 1   
     3     1    19 1   
     4     3     4 1   
     5     3     5 2   
     6     4    22 1   
     7     5    13 1   
     8     5    21 1   
     9     6    13 2   
    10     7     8 ar  
    11     7    12 ar  
    12     7    21 1   
    13     8     9 ar  
    14     8    23 1   
    15     9    10 ar  
    16     9    24 1   
    17    10    11 ar  
    18    10    20 1   
    19    11    12 ar  
    20    11    25 1   
    21    12    26 1   
    22    13    14 1   
    23    14    15 ar  
    24    14    19 ar  
    25    15    16 ar  
    26    15    27 1   
    27    16    17 ar  
    28    16    28 1   
    29    17    18 ar  
    30    17    29 1   
    31    18    19 ar  
    32    18    30 1   
    33    21    31 1   
@<TRIPOS>SUBSTRUCTURE
     1 QLA         1 TEMP              0 ****  ****    0 ROOT
