@<TRIPOS>MOLECULE
QLA
   31    33     1     0     0
SMALL
No Charge or Current Charge


@<TRIPOS>ATOM
      1 C1          15.8740    29.1680    64.1930 c          1 QLA       0.562900
      2 O1          15.3240    29.1490    63.0950 o          1 QLA      -0.528100
      3 C2          16.2320    30.4580    64.8610 cc         1 QLA      -0.031100
      4 O2          15.8450    31.5580    64.1460 oh         1 QLA      -0.504100
      5 C3          16.8530    30.5150    66.1070 cd         1 QLA       0.032800
      6 O3          17.6380    29.2720    67.9980 o          1 QLA      -0.518100
      7 C4          17.6420    32.9650    66.2520 ca         1 QLA       0.299000
      8 C5          18.3060    33.0790    65.0140 ca         1 QLA      -0.120500
      9 C6          18.7880    34.3270    64.5740 ca         1 QLA      -0.123500
     10 C7          18.6170    35.4640    65.3790 ca         1 QLA       0.141000
     11 C8          17.9750    35.3590    66.6230 ca         1 QLA      -0.123500
     12 C9          17.4950    34.1090    67.0600 ca         1 QLA      -0.120500
     13 C10         17.1440    29.2440    66.8720 c          1 QLA       0.581900
     14 C11         16.8090    27.9280    66.2110 ca         1 QLA      -0.129600
     15 C12         17.1000    26.7130    66.8740 ca         1 QLA      -0.062000
     16 C13         16.7990    25.4800    66.2740 ca         1 QLA      -0.094000
     17 C14         16.2040    25.4460    65.0060 ca         1 QLA      -0.096000
     18 C15         15.9100    26.6440    64.3370 ca         1 QLA      -0.060000
     19 C16         16.2080    27.8930    64.9300 ca         1 QLA      -0.130600
     20 F1          19.0800    36.6610    64.9590 f          1 QLA      -0.182000
     21 N1          17.1820    31.7310    66.7290 nu         1 QLA      -0.821000
     22 H1          15.4160    31.2270    63.3220 ho         1 QLA       0.485000
     23 H2          18.4600    32.1990    64.3970 ha         1 QLA       0.121500
     24 H3          19.2960    34.4110    63.6170 ha         1 QLA       0.130500
     25 H4          17.8520    36.2420    67.2460 ha         1 QLA       0.130500
     26 H5          17.0000    34.0330    68.0240 ha         1 QLA       0.121500
     27 H6          17.5630    26.7180    67.8600 ha         1 QLA       0.140000
     28 H7          17.0280    24.5520    66.7940 ha         1 QLA       0.124000
     29 H8          15.9700    24.4910    64.5400 ha         1 QLA       0.124000
     30 H9          15.4460    26.5970    63.3530 ha         1 QLA       0.140000
     31 H10         17.2200    31.6590    67.7510 hn         1 QLA       0.508000
@<TRIPOS>BOND
     1     1     2 2   
     2     1     3 1   
     3     1    19 1   
     4     3     4 1   
     5     3     5 2   
     6     4    22 1   
     7     5    13 1   
     8     5    21 1   
     9     6    13 2   
    10     7     8 ar  
    11     7    12 ar  
    12     7    21 1   
    13     8     9 ar  
    14     8    23 1   
    15     9    10 ar  
    16     9    24 1   
    17    10    11 ar  
    18    10    20 1   
    19    11    12 ar  
    20    11    25 1   
    21    12    26 1   
    22    13    14 1   
    23    14    15 ar  
    24    14    19 ar  
    25    15    16 ar  
    26    15    27 1   
    27    16    17 ar  
    28    16    28 1   
    29    17    18 ar  
    30    17    29 1   
    31    18    19 ar  
    32    18    30 1   
    33    21    31 1   
@<TRIPOS>SUBSTRUCTURE
     1 QLA         1 TEMP              0 ****  ****    0 ROOT
