@<TRIPOS>MOLECULE
QLB
   48    47     1     0     0
SMALL
bcc


@<TRIPOS>ATOM
      1 C10         24.0100    26.0640   -62.3510 c3         1 QLB      -0.075400
      2 C13         23.3480    21.8190   -58.4090 c3         1 QLB       0.128400
      3 C15         21.7000    20.5950   -61.4350 c3         1 QLB       0.137400
      4 C17         18.6050    20.1550   -63.3280 c3         1 QLB       0.140400
      5 O01         24.6400    21.7180   -57.8600 os         1 QLB      -0.405600
      6 O02         21.9470    21.2710   -60.2300 os         1 QLB      -0.420600
      7 O03         19.9580    20.0810   -62.9530 os         1 QLB      -0.403600
      8 O04         19.0620    20.0850   -65.6650 oh         1 QLB      -0.586800
      9 C05         25.6180    26.1620   -58.7940 c3         1 QLB      -0.075400
     10 C06         25.0930    25.5810   -60.1020 c3         1 QLB      -0.076400
     11 C07         26.2700    25.1540   -57.8490 c3         1 QLB      -0.070400
     12 C08         24.5600    26.6440   -61.0540 c3         1 QLB      -0.076400
     13 C09         25.3540    24.0120   -57.3940 c3         1 QLB      -0.109400
     14 C11         25.5230    22.7540   -58.2390 c3         1 QLB       0.127400
     15 C12         23.4830    27.1300   -63.3010 c3         1 QLB      -0.088100
     16 C14         23.2700    21.1450   -59.7720 c3         1 QLB       0.107400
     17 C16         20.2290    20.7700   -61.7610 c3         1 QLB       0.133400
     18 C18         18.3870    19.4180   -64.6240 c3         1 QLB       0.140400
     19 H102        23.2120    25.3520   -62.1180 hc         1 QLB       0.037200
     20 H101        24.7950    25.4850   -62.8480 hc         1 QLB       0.037200
     21 H131        23.0180    22.8620   -58.4940 h1         1 QLB       0.055700
     22 H132        22.6600    21.3200   -57.7210 h1         1 QLB       0.055700
     23 H152        21.9380    19.5260   -61.3430 h1         1 QLB       0.035700
     24 H151        22.3190    20.9960   -62.2500 h1         1 QLB       0.035700
     25 H171        18.2850    21.2020   -63.4350 h1         1 QLB       0.029700
     26 H172        17.9610    19.7030   -62.5620 h1         1 QLB       0.029700
     27 H041        18.9220    19.5910   -66.4780 ho         1 QLB       0.402000
     28 H051        26.3470    26.9460   -59.0210 hc         1 QLB       0.038200
     29 H052        24.7940    26.6590   -58.2700 hc         1 QLB       0.038200
     30 H062        24.2940    24.8600   -59.8960 hc         1 QLB       0.036700
     31 H061        25.8900    25.0160   -60.5980 hc         1 QLB       0.036700
     32 H072        27.1680    24.7410   -58.3240 hc         1 QLB       0.038700
     33 H071        26.6280    25.6980   -56.9720 hc         1 QLB       0.038700
     34 H081        25.3580    27.3580   -61.2830 hc         1 QLB       0.037200
     35 H082        23.7740    27.2200   -60.5530 hc         1 QLB       0.037200
     36 H091        25.5670    23.7520   -56.3540 hc         1 QLB       0.047700
     37 H092        24.3120    24.3470   -57.4180 hc         1 QLB       0.047700
     38 H112        26.5360    22.3660   -58.1000 h1         1 QLB       0.043700
     39 H111        25.4260    22.9860   -59.3060 h1         1 QLB       0.043700
     40 H123        23.0970    26.6930   -64.2220 hc         1 QLB       0.031700
     41 H122        22.6750    27.7020   -62.8420 hc         1 QLB       0.031700
     42 H121        24.2690    27.8360   -63.5740 hc         1 QLB       0.031700
     43 H142        23.5570    20.0890   -59.6790 h1         1 QLB       0.029700
     44 H141        23.9740    21.6100   -60.4770 h1         1 QLB       0.029700
     45 H162        19.9920    21.8390   -61.8600 h1         1 QLB       0.032200
     46 H161        19.6190    20.3800   -60.9330 h1         1 QLB       0.032200
     47 H182        17.3040    19.3780   -64.7970 h1         1 QLB       0.025200
     48 H181        18.7290    18.3800   -64.5130 h1         1 QLB       0.025200
@<TRIPOS>BOND
     1     1    12 1   
     2     1    15 1   
     3     1    19 1   
     4     1    20 1   
     5     2     5 1   
     6     2    16 1   
     7     2    21 1   
     8     2    22 1   
     9     3     6 1   
    10     3    17 1   
    11     3    23 1   
    12     3    24 1   
    13     4     7 1   
    14     4    18 1   
    15     4    25 1   
    16     4    26 1   
    17     5    14 1   
    18     6    16 1   
    19     7    17 1   
    20     8    18 1   
    21     8    27 1   
    22     9    10 1   
    23     9    11 1   
    24     9    28 1   
    25     9    29 1   
    26    10    12 1   
    27    10    30 1   
    28    10    31 1   
    29    11    13 1   
    30    11    32 1   
    31    11    33 1   
    32    12    34 1   
    33    12    35 1   
    34    13    14 1   
    35    13    36 1   
    36    13    37 1   
    37    14    38 1   
    38    14    39 1   
    39    15    40 1   
    40    15    41 1   
    41    15    42 1   
    42    16    43 1   
    43    16    44 1   
    44    17    45 1   
    45    17    46 1   
    46    18    47 1   
    47    18    48 1   
@<TRIPOS>SUBSTRUCTURE
     1 QLB         1 TEMP              0 ****  ****    0 ROOT
