@<TRIPOS>MOLECULE
QLB
   48    47     1     0     0
SMALL
No Charge or Current Charge


@<TRIPOS>ATOM
      1 C10         24.7450    25.8110   -62.7910 c3         1 QLB      -0.075400
      2 C13         23.5970    21.3540   -58.1160 c3         1 QLB       0.151600
      3 C15         21.6380    20.8830   -61.2830 c3         1 QLB       0.160600
      4 C17         18.4490    19.9340   -63.0200 c3         1 QLB       0.163600
      5 O01         25.0010    21.5740   -57.8150 os         1 QLB      -0.452000
      6 O02         22.0080    20.9230   -59.8910 os         1 QLB      -0.467000
      7 O03         19.8040    20.3630   -62.7750 os         1 QLB      -0.450000
      8 O04         18.1730    21.2710   -65.0890 oh         1 QLB      -0.709000
      9 C05         25.0680    26.2070   -58.8670 c3         1 QLB      -0.075400
     10 C06         25.1360    25.5410   -60.2600 c3         1 QLB      -0.076400
     11 C07         25.6570    25.3740   -57.6990 c3         1 QLB      -0.070400
     12 C08         24.7010    26.4850   -61.4020 c3         1 QLB      -0.076400
     13 C09         24.9780    24.0050   -57.4370 c3         1 QLB      -0.109400
     14 C11         25.6000    22.8250   -58.2300 c3         1 QLB       0.150600
     15 C12         24.3110    26.7500   -63.9320 c3         1 QLB      -0.088100
     16 C14         23.3590    21.3540   -59.6470 c3         1 QLB       0.130600
     17 C16         20.1730    20.4080   -61.3840 c3         1 QLB       0.156600
     18 C18         18.1780    19.9340   -64.5490 c3         1 QLB       0.163600
     19 H102        24.0930    24.9290   -62.7880 hc         1 QLB       0.037200
     20 H101        25.7640    25.4550   -62.9900 hc         1 QLB       0.037200
     21 H131        22.9580    22.1100   -57.6420 h1         1 QLB       0.055700
     22 H132        23.2900    20.3780   -57.7190 h1         1 QLB       0.055700
     23 H152        22.2840    20.1880   -61.8360 h1         1 QLB       0.035700
     24 H151        21.7290    21.8790   -61.7370 h1         1 QLB       0.035700
     25 H171        17.7300    20.5980   -62.5210 h1         1 QLB       0.029700
     26 H172        18.2960    18.9170   -62.6340 h1         1 QLB       0.029700
     27 H041        18.0570    21.1840   -66.0650 ho         1 QLB       0.501000
     28 H051        25.6080    27.1610   -58.9070 hc         1 QLB       0.038200
     29 H052        24.0230    26.4530   -58.6400 hc         1 QLB       0.038200
     30 H062        24.4790    24.6640   -60.2730 hc         1 QLB       0.036700
     31 H061        26.1590    25.1920   -60.4490 hc         1 QLB       0.036700
     32 H072        26.7340    25.2310   -57.8540 hc         1 QLB       0.038700
     33 H071        25.5620    25.9780   -56.7870 hc         1 QLB       0.038700
     34 H081        25.3540    27.3680   -61.4100 hc         1 QLB       0.037200
     35 H082        23.6820    26.8420   -61.2070 hc         1 QLB       0.037200
     36 H091        25.0660    23.7750   -56.3680 hc         1 QLB       0.047700
     37 H092        23.9080    24.0960   -57.6530 hc         1 QLB       0.047700
     38 H112        26.6770    22.7960   -58.0150 h1         1 QLB       0.043700
     39 H111        25.4970    22.9760   -59.3090 h1         1 QLB       0.043700
     40 H123        24.3590    26.2290   -64.8960 hc         1 QLB       0.031700
     41 H122        23.2820    27.0960   -63.7800 hc         1 QLB       0.031700
     42 H121        24.9680    27.6270   -63.9840 hc         1 QLB       0.031700
     43 H142        24.0730    20.6730   -60.1270 h1         1 QLB       0.029700
     44 H141        23.5120    22.3640   -60.0480 h1         1 QLB       0.029700
     45 H162        19.5260    21.1060   -60.8340 h1         1 QLB       0.032200
     46 H161        20.0810    19.4140   -60.9270 h1         1 QLB       0.032200
     47 H182        17.2070    19.4550   -64.7290 h1         1 QLB       0.025200
     48 H181        18.9430    19.3220   -65.0460 h1         1 QLB       0.025200
@<TRIPOS>BOND
     1     1    12 1   
     2     1    15 1   
     3     1    19 1   
     4     1    20 1   
     5     2     5 1   
     6     2    16 1   
     7     2    21 1   
     8     2    22 1   
     9     3     6 1   
    10     3    17 1   
    11     3    23 1   
    12     3    24 1   
    13     4     7 1   
    14     4    18 1   
    15     4    25 1   
    16     4    26 1   
    17     5    14 1   
    18     6    16 1   
    19     7    17 1   
    20     8    18 1   
    21     8    27 1   
    22     9    10 1   
    23     9    11 1   
    24     9    28 1   
    25     9    29 1   
    26    10    12 1   
    27    10    30 1   
    28    10    31 1   
    29    11    13 1   
    30    11    32 1   
    31    11    33 1   
    32    12    34 1   
    33    12    35 1   
    34    13    14 1   
    35    13    36 1   
    36    13    37 1   
    37    14    38 1   
    38    14    39 1   
    39    15    40 1   
    40    15    41 1   
    41    15    42 1   
    42    16    43 1   
    43    16    44 1   
    44    17    45 1   
    45    17    46 1   
    46    18    47 1   
    47    18    48 1   
@<TRIPOS>SUBSTRUCTURE
     1 QLB         1 TEMP              0 ****  ****    0 ROOT
