@<TRIPOS>MOLECULE
QLC
   45    47     1     0     0
SMALL
abcg2


@<TRIPOS>ATOM
      1 N1         -15.9920     4.8170    26.2070 nb         1 QLC      -0.654000
      2 C4         -20.3990     5.7500    27.4140 c          1 QLC       0.604100
      3 C5         -18.2840     5.5460    26.2090 ca         1 QLC      -0.079000
      4 C6         -17.3150     4.5940    26.4020 ca         1 QLC       0.310900
      5 C7         -15.6230     6.0190    25.8250 ca         1 QLC       0.360900
      6 C8         -16.5240     7.0830    25.5860 ca         1 QLC      -0.091000
      7 C10        -16.9910     9.3510    24.9040 ca         1 QLC      -0.105000
      8 C13        -17.9150     6.8440    25.7680 ca         1 QLC      -0.002000
      9 C15        -22.8840     5.8890    29.6650 ca         1 QLC      -0.056000
     10 C17        -22.9990     4.3020    31.4720 ca         1 QLC       0.132000
     11 C18        -22.4080     3.3380    30.6560 ca         1 QLC       0.120000
     12 CL         -23.4510     3.9430    33.1120 cl         1 QLC      -0.175000
     13 C16        -23.2380     5.5760    30.9690 ca         1 QLC      -0.098000
     14 C19        -22.0640     3.6540    29.3480 ca         1 QLC      -0.088000
     15 C14        -22.2950     4.9290    28.8470 ca         1 QLC      -0.107300
     16 C3         -21.8570     5.2590    27.4390 c3         1 QLC       0.140600
     17 O1         -22.5970     6.3270    26.8630 os         1 QLC      -0.442000
     18 C2         -23.8580     5.9330    26.3170 c3         1 QLC       0.146600
     19 C1         -23.6970     5.4680    24.8800 c3         1 QLC       0.127600
     20 O          -24.9710     5.0700    24.4070 os         1 QLC      -0.461000
     21 C          -24.9360     4.6210    23.0610 c3         1 QLC       0.146900
     22 O2         -19.9900     6.5930    28.1970 o          1 QLC      -0.545100
     23 N          -19.6460     5.2070    26.4280 ns         1 QLC      -0.166000
     24 C12        -18.8310     7.8830    25.4870 ca         1 QLC      -0.086000
     25 C11        -18.3730     9.1060    25.0640 ca         1 QLC      -0.092000
     26 C9         -16.0820     8.3560    25.1560 ca         1 QLC      -0.086000
     27 H1         -17.5980     3.6000    26.7320 h4         1 QLC       0.021100
     28 H2         -14.5600     6.1920    25.6850 h4         1 QLC       0.022100
     29 H3         -16.6560    10.3260    24.5740 ha         1 QLC       0.118000
     30 H4         -23.0740     6.8800    29.2790 ha         1 QLC       0.141000
     31 H5         -23.6990     6.3180    31.6060 ha         1 QLC       0.136000
     32 H6         -21.6130     2.8930    28.7230 ha         1 QLC       0.126000
     33 H7         -21.9440     4.3610    26.8230 h1         1 QLC       0.045700
     34 H8         -24.5010     6.8130    26.3590 h1         1 QLC       0.067700
     35 H9         -24.3130     5.1460    26.9250 h1         1 QLC       0.067700
     36 H10        -22.9930     4.6270    24.8240 h1         1 QLC       0.027700
     37 H11        -23.2950     6.2850    24.2670 h1         1 QLC       0.027700
     38 H12        -25.9480     4.3270    22.7890 h1         1 QLC       0.033367
     39 H13        -24.5960     5.4170    22.3890 h1         1 QLC       0.033367
     40 H14        -24.2660     3.7590    22.9530 h1         1 QLC       0.033367
     41 H15        -20.0330     4.4450    25.8910 hn         1 QLC       0.156000
     42 H16        -19.8910     7.7100    25.6040 ha         1 QLC       0.129000
     43 H17        -19.0800     9.8970    24.8480 ha         1 QLC       0.117000
     44 H18        -15.0200     8.5250    25.0280 ha         1 QLC       0.118000
     45 CL1        -22.0970     1.7300    31.2410 cl         1 QLC      -0.178000
@<TRIPOS>BOND
     1     1     4 ar  
     2     1     5 ar  
     3     2    16 1   
     4     2    22 2   
     5     2    23 1   
     6     3     4 ar  
     7     3     8 ar  
     8     3    23 1   
     9     4    27 1   
    10     5     6 ar  
    11     5    28 1   
    12     6     8 ar  
    13     6    26 ar  
    14     7    25 ar  
    15     7    26 ar  
    16     7    29 1   
    17     8    24 ar  
    18     9    13 ar  
    19     9    15 ar  
    20     9    30 1   
    21    10    11 ar  
    22    10    12 1   
    23    10    13 ar  
    24    11    14 ar  
    25    11    45 1   
    26    13    31 1   
    27    14    15 ar  
    28    14    32 1   
    29    15    16 1   
    30    16    17 1   
    31    16    33 1   
    32    17    18 1   
    33    18    19 1   
    34    18    34 1   
    35    18    35 1   
    36    19    20 1   
    37    19    36 1   
    38    19    37 1   
    39    20    21 1   
    40    21    38 1   
    41    21    39 1   
    42    21    40 1   
    43    23    41 1   
    44    24    25 ar  
    45    24    42 1   
    46    25    43 1   
    47    26    44 1   
@<TRIPOS>SUBSTRUCTURE
     1 QLC         1 TEMP              0 ****  ****    0 ROOT
