@<TRIPOS>MOLECULE
QLC
   45    47     1     0     0
SMALL
No Charge or Current Charge


@<TRIPOS>ATOM
      1 N1         -15.9980     5.9330    28.1180 nb         1 QLC      -0.654000
      2 C4         -20.6330     6.6570    26.9810 c          1 QLC       0.604100
      3 C5         -18.1290     6.2060    26.9680 ca         1 QLC      -0.079000
      4 C6         -17.3120     5.6520    27.9770 ca         1 QLC       0.310900
      5 C7         -15.4420     6.7890    27.2300 ca         1 QLC       0.360900
      6 C8         -16.1620     7.3760    26.1720 ca         1 QLC      -0.091000
      7 C10        -16.2340     8.8030    24.1980 ca         1 QLC      -0.105000
      8 C13        -17.5350     7.0790    26.0220 ca         1 QLC      -0.002000
      9 C15        -22.2470     5.5320    29.4430 ca         1 QLC      -0.056000
     10 C17        -22.4090     3.3060    30.4210 ca         1 QLC       0.132000
     11 C18        -22.2940     2.7360    29.1360 ca         1 QLC       0.120000
     12 Cl         -22.5850     2.2940    31.8550 cl         1 QLC      -0.175000
     13 C16        -22.3860     4.7030    30.5700 ca         1 QLC      -0.098000
     14 C19        -22.1540     3.5660    28.0100 ca         1 QLC      -0.088000
     15 C14        -22.1280     4.9690    28.1560 ca         1 QLC      -0.107300
     16 C3         -21.9770     5.8700    26.9260 c3         1 QLC       0.140600
     17 O1         -23.1290     6.7570    26.8400 os         1 QLC      -0.442000
     18 C2         -24.4360     6.1430    26.6970 c3         1 QLC       0.146600
     19 C1         -24.5450     5.4110    25.3370 c3         1 QLC       0.127600
     20 O          -25.9150     5.0070    25.1540 os         1 QLC      -0.461000
     21 C          -26.1710     4.3080    23.9230 c3         1 QLC       0.146900
     22 O2         -20.5640     7.8810    27.0660 o          1 QLC      -0.545100
     23 N          -19.5050     5.8480    26.9500 ns         1 QLC      -0.166000
     24 C12        -18.2430     7.6340    24.9310 ca         1 QLC      -0.086000
     25 C11        -17.5940     8.4940    24.0280 ca         1 QLC      -0.092000
     26 C9         -15.5160     8.2410    25.2660 ca         1 QLC      -0.086000
     27 H1         -17.7340     4.9680    28.7120 h4         1 QLC       0.021100
     28 H2         -14.3810     6.9990    27.3670 h4         1 QLC       0.022100
     29 H3         -15.7360     9.4690    23.4970 ha         1 QLC       0.118000
     30 H4         -22.2360     6.6130    29.5710 ha         1 QLC       0.141000
     31 H5         -22.4770     5.1430    31.5590 ha         1 QLC       0.136000
     32 H6         -22.0680     3.1140    27.0250 ha         1 QLC       0.126000
     33 H7         -21.9140     5.2430    26.0280 h1         1 QLC       0.045700
     34 H8         -25.2120     6.9190    26.7360 h1         1 QLC       0.067700
     35 H9         -24.6390     5.4360    27.5120 h1         1 QLC       0.067700
     36 H10        -23.8870     4.5320    25.3320 h1         1 QLC       0.027700
     37 H11        -24.2330     6.0890    24.5320 h1         1 QLC       0.027700
     38 H12        -27.2310     4.0330    23.8540 h1         1 QLC       0.033367
     39 H13        -25.9230     4.9360    23.0580 h1         1 QLC       0.033367
     40 H14        -25.5750     3.3870    23.8660 h1         1 QLC       0.033367
     41 H15        -19.6880     4.8520    26.9490 hn         1 QLC       0.156000
     42 H16        -19.2890     7.4010    24.7610 ha         1 QLC       0.129000
     43 H17        -18.1460     8.9200    23.1930 ha         1 QLC       0.117000
     44 H18        -14.4600     8.4740    25.3850 ha         1 QLC       0.118000
     45 Cl1        -22.3210     0.9870    28.9090 cl         1 QLC      -0.178000
@<TRIPOS>BOND
     1     1     4 ar  
     2     1     5 ar  
     3     2    16 1   
     4     2    22 2   
     5     2    23 1   
     6     3     4 ar  
     7     3     8 ar  
     8     3    23 1   
     9     4    27 1   
    10     5     6 ar  
    11     5    28 1   
    12     6     8 ar  
    13     6    26 ar  
    14     7    25 ar  
    15     7    26 ar  
    16     7    29 1   
    17     8    24 ar  
    18     9    13 ar  
    19     9    15 ar  
    20     9    30 1   
    21    10    11 ar  
    22    10    12 1   
    23    10    13 ar  
    24    11    14 ar  
    25    11    45 1   
    26    13    31 1   
    27    14    15 ar  
    28    14    32 1   
    29    15    16 1   
    30    16    17 1   
    31    16    33 1   
    32    17    18 1   
    33    18    19 1   
    34    18    34 1   
    35    18    35 1   
    36    19    20 1   
    37    19    36 1   
    38    19    37 1   
    39    20    21 1   
    40    21    38 1   
    41    21    39 1   
    42    21    40 1   
    43    23    41 1   
    44    24    25 ar  
    45    24    42 1   
    46    25    43 1   
    47    26    44 1   
@<TRIPOS>SUBSTRUCTURE
     1 QLC         1 TEMP              0 ****  ****    0 ROOT
