@<TRIPOS>MOLECULE
QLD
   77    81     1     0     0
SMALL
No Charge or Current Charge


@<TRIPOS>ATOM
      1 C13          5.1310     0.2350     0.1000 ce         1 QLD      -0.086200
      2 C18          0.1020     1.9520    -2.9770 c3         1 QLD      -0.075400
      3 C17          0.8090     2.1300    -1.5940 c3         1 QLD       0.099400
      4 C15          3.0060     1.3550    -0.6460 c          1 QLD       0.604300
      5 C19         -0.6720     0.6150    -3.2010 c3         1 QLD      -0.072400
      6 C20         -2.2200     0.7590    -3.1520 c3         1 QLD      -0.084400
      7 C22         -0.1280     2.1260    -0.3910 cc         1 QLD       0.386800
      8 C24         -1.1400     2.7130     1.5090 cc         1 QLD      -0.215000
      9 C34         -7.2060    -2.0610     2.6860 c          1 QLD       0.644100
     10 C27         -2.9200     0.8610     1.4880 ca         1 QLD      -0.204500
     11 C2           8.4640    -1.5830     0.6270 ca         1 QLD      -0.097000
     12 C3           8.0870    -2.9120     0.3720 ca         1 QLD      -0.086000
     13 C4           6.7610    -3.2060     0.0280 ca         1 QLD       0.126000
     14 C5           5.8110    -2.1770    -0.0630 ca         1 QLD      -0.087000
     15 C6           6.1730    -0.8360     0.1870 ca         1 QLD      -0.029800
     16 C7           7.5180    -0.5400     0.5370 ca         1 QLD       0.008800
     17 N8           7.9390     0.7680     0.7850 na         1 QLD      -0.000500
     18 C9           8.4890     1.2060     1.9530 cc         1 QLD       0.392400
     19 N10          8.8570     2.4540     1.7220 nd         1 QLD      -0.377000
     20 N11          8.5410     2.7240     0.4010 nd         1 QLD      -0.036000
     21 N12          8.0030     1.6910    -0.1970 nc         1 QLD      -0.187800
     22 C14          3.9760     0.2340    -0.6300 cf         1 QLD      -0.272200
     23 O16          3.1620     2.3770     0.0070 o          1 QLD      -0.623100
     24 N21          1.9110     1.1640    -1.4500 ns         1 QLD      -0.500900
     25 N23         -0.1180     3.0430     0.6320 na         1 QLD      -0.278500
     26 C25         -1.7390     1.5990     0.9690 cd         1 QLD       0.327500
     27 N26         -1.0530     1.2170    -0.1600 nd         1 QLD      -0.719000
     28 C28         -3.4480     1.2160     2.7480 ca         1 QLD      -0.031000
     29 C29         -4.5680     0.5520     3.2720 ca         1 QLD      -0.224000
     30 C30         -5.1980    -0.4780     2.5580 ca         1 QLD       0.041000
     31 C31         -4.6790    -0.8410     1.3020 ca         1 QLD      -0.225000
     32 C32         -3.5610    -0.1830     0.7680 ca         1 QLD       0.383000
     33 N33         -6.3260    -1.1020     3.1510 ns         1 QLD      -0.138000
     34 O35         -7.1960    -2.5840     1.5800 o          1 QLD      -0.523000
     35 O36         -8.1260    -2.3290     3.6640 os         1 QLD      -0.461100
     36 C37         -9.1480    -3.3020     3.3790 c3         1 QLD       0.171900
     37 C38         -2.9890    -0.5870    -2.9670 c3         1 QLD      -0.075400
     38 C39         -3.9350    -0.6360    -1.7320 c3         1 QLD       0.178500
     39 N40         -3.1080    -0.5640    -0.4890 nu         1 QLD      -0.955200
     40 C41         -5.0800     0.4390    -1.8510 c          1 QLD       0.558100
     41 O42         -5.1180     1.5010    -1.2360 o          1 QLD      -0.478000
     42 O43         -6.0620     0.0280    -2.7190 os         1 QLD      -0.450100
     43 C44         -8.1210     0.2060    -3.9350 c3         1 QLD      -0.096100
     44 C45         -7.1870     0.8970    -2.9300 c3         1 QLD       0.167600
     45 H50          5.3430     1.1240     0.6990 ha         1 QLD       0.213000
     46 H53         -0.5770     2.7990    -3.1370 hc         1 QLD       0.059700
     47 H54          0.8680     2.0410    -3.7570 hc         1 QLD       0.059700
     48 H52          1.2670     3.1280    -1.6210 h1         1 QLD       0.085700
     49 H56         -0.3990     0.2050    -4.1820 hc         1 QLD       0.040700
     50 H55         -0.3440    -0.1290    -2.4650 hc         1 QLD       0.040700
     51 H58         -2.4980     1.4590    -2.3560 hc         1 QLD       0.054200
     52 H57         -2.5560     1.2350    -4.0810 hc         1 QLD       0.054200
     53 H61         -1.3710     3.2900     2.3950 h4         1 QLD       0.161000
     54 H46          9.4980    -1.3640     0.8860 ha         1 QLD       0.136000
     55 H47          8.8200    -3.7110     0.4410 ha         1 QLD       0.143000
     56 H48          4.7860    -2.4340    -0.3150 ha         1 QLD       0.140000
     57 H49          8.5810     0.6210     2.8600 h5         1 QLD       0.078100
     58 H51          3.7360    -0.6240    -1.2530 ha         1 QLD       0.183000
     59 H59          1.8490     0.2820    -1.9430 hn         1 QLD       0.324500
     60 H60          0.5330     3.8150     0.7130 hn         1 QLD       0.375000
     61 H62         -2.9910     2.0070     3.3370 ha         1 QLD       0.106000
     62 H63         -4.9500     0.8470     4.2470 ha         1 QLD       0.110000
     63 H64         -5.1280    -1.6380     0.7230 ha         1 QLD       0.145000
     64 H65         -6.5250    -0.7890     4.0910 hn         1 QLD       0.164000
     65 H66         -8.7060    -4.2810     3.1540 h1         1 QLD       0.048700
     66 H68         -9.8140    -3.4210     4.2430 h1         1 QLD       0.048700
     67 H67         -9.7580    -2.9900     2.5210 h1         1 QLD       0.048700
     68 H70         -3.5840    -0.7760    -3.8690 hc         1 QLD       0.054700
     69 H69         -2.2800    -1.4220    -2.9020 hc         1 QLD       0.054700
     70 H71         -4.4550    -1.6040    -1.7500 h1         1 QLD       0.084700
     71 H72         -2.2120    -0.0820    -0.6490 hn         1 QLD       0.529000
     72 H75         -7.6040     0.0330    -4.8860 hc         1 QLD       0.044700
     73 H74         -8.4660    -0.7570    -3.5420 hc         1 QLD       0.044700
     74 H73         -8.9990     0.8330    -4.1300 hc         1 QLD       0.044700
     75 H76         -7.7260     1.0740    -1.9900 h1         1 QLD       0.048200
     76 H77         -6.8640     1.8650    -3.3350 h1         1 QLD       0.048200
     77 Cl1          6.2850    -4.8700    -0.2850 cl         1 QLD      -0.175000
@<TRIPOS>BOND
     1     1    15 1   
     2     1    22 2   
     3     1    45 1   
     4     2     3 1   
     5     2     5 1   
     6     2    46 1   
     7     2    47 1   
     8     3     7 1   
     9     3    24 1   
    10     3    48 1   
    11     4    22 1   
    12     4    23 2   
    13     4    24 1   
    14     5     6 1   
    15     5    49 1   
    16     5    50 1   
    17     6    37 1   
    18     6    51 1   
    19     6    52 1   
    20     7    25 1   
    21     7    27 2   
    22     8    25 1   
    23     8    26 2   
    24     8    53 1   
    25     9    33 1   
    26     9    34 2   
    27     9    35 1   
    28    10    26 1   
    29    10    28 ar  
    30    10    32 ar  
    31    11    12 ar  
    32    11    16 ar  
    33    11    54 1   
    34    12    13 ar  
    35    12    55 1   
    36    13    14 ar  
    37    13    77 1   
    38    14    15 ar  
    39    14    56 1   
    40    15    16 ar  
    41    16    17 1   
    42    17    18 1   
    43    17    21 1   
    44    18    19 2   
    45    18    57 1   
    46    19    20 1   
    47    20    21 2   
    48    22    58 1   
    49    24    59 1   
    50    25    60 1   
    51    26    27 1   
    52    28    29 ar  
    53    28    61 1   
    54    29    30 ar  
    55    29    62 1   
    56    30    31 ar  
    57    30    33 1   
    58    31    32 ar  
    59    31    63 1   
    60    32    39 1   
    61    33    64 1   
    62    35    36 1   
    63    36    65 1   
    64    36    66 1   
    65    36    67 1   
    66    37    38 1   
    67    37    68 1   
    68    37    69 1   
    69    38    39 1   
    70    38    40 1   
    71    38    70 1   
    72    39    71 1   
    73    40    41 2   
    74    40    42 1   
    75    42    44 1   
    76    43    44 1   
    77    43    72 1   
    78    43    73 1   
    79    43    74 1   
    80    44    75 1   
    81    44    76 1   
@<TRIPOS>SUBSTRUCTURE
     1 QLD         1 TEMP              0 ****  ****    0 ROOT
