@<TRIPOS>MOLECULE
QLD
   77    81     1     0     0
SMALL
bcc


@<TRIPOS>ATOM
      1 C13          5.2660     0.3530     0.0550 ce         1 QLD      -0.036200
      2 C18         -0.0290     1.9020    -2.3310 c3         1 QLD      -0.075400
      3 C17          0.8240     2.0790    -1.0700 c3         1 QLD       0.099400
      4 C15          3.0720     1.3390    -0.3940 c          1 QLD       0.671300
      5 C19         -0.6510     0.5060    -2.5430 c3         1 QLD      -0.072400
      6 C20         -2.1220     0.5650    -2.9930 c3         1 QLD      -0.084400
      7 C22         -0.0030     1.9120     0.1760 cc         1 QLD       0.386800
      8 C24         -0.5930     1.7120     2.2870 cc         1 QLD      -0.247600
      9 C34         -7.6820    -1.3570     2.1380 c          1 QLD       0.760100
     10 C27         -2.9610     0.8000     1.7920 ca         1 QLD      -0.204500
     11 C2           8.6550    -1.3070     0.0450 ca         1 QLD      -0.115000
     12 C3           8.3140    -2.6420    -0.0820 ca         1 QLD      -0.104000
     13 C4           6.9740    -2.9800    -0.1930 ca         1 QLD       0.034400
     14 C5           5.9810    -2.0170    -0.1650 ca         1 QLD      -0.105000
     15 C6           6.3100    -0.6690    -0.0250 ca         1 QLD      -0.029800
     16 C7           7.6650    -0.3400     0.0780 ca         1 QLD       0.008800
     17 N8           8.0540     1.0140     0.2040 na         1 QLD      -0.000500
     18 C9           8.8300     1.5940     1.1270 cc         1 QLD       0.392400
     19 N10          8.9530     2.8550     0.8170 nd         1 QLD      -0.377000
     20 N11          8.2470     3.0300    -0.3030 nd         1 QLD      -0.036000
     21 N12          7.7080     1.9430    -0.6840 nc         1 QLD      -0.187800
     22 C14          4.0900     0.2750    -0.5680 cf         1 QLD      -0.222200
     23 O16          3.2520     2.3190     0.3220 o          1 QLD      -0.623100
     24 N21          1.9380     1.1430    -1.0850 ns         1 QLD      -0.567900
     25 N23          0.4230     2.0710     1.4460 na         1 QLD      -0.278900
     26 C25         -1.6390     1.3490     1.4740 cd         1 QLD       0.392800
     27 N26         -1.2420     1.5060     0.1740 nd         1 QLD      -0.719000
     28 C28         -3.5230     0.9910     3.0490 ca         1 QLD      -0.049000
     29 C29         -4.7520     0.4670     3.4030 ca         1 QLD      -0.242000
     30 C30         -5.4700    -0.2870     2.4720 ca         1 QLD       0.133600
     31 C31         -4.9350    -0.5090     1.2080 ca         1 QLD      -0.243000
     32 C32         -3.6930     0.0280     0.8490 ca         1 QLD       0.244600
     33 N33         -6.7050    -0.7880     2.8900 ns         1 QLD      -0.464100
     34 O35         -7.6380    -1.5800     0.9490 o          1 QLD      -0.572000
     35 O36         -8.7280    -1.6440     2.9140 os         1 QLD      -0.437900
     36 C37         -9.8500    -2.2560     2.2840 c3         1 QLD       0.148700
     37 C38         -2.9140    -0.7350    -2.7400 c3         1 QLD      -0.075400
     38 C39         -3.8750    -0.6750    -1.5310 c3         1 QLD       0.178500
     39 N40         -3.1510    -0.2200    -0.3850 nu         1 QLD      -0.761600
     40 C41         -5.0590     0.2310    -1.8630 c          1 QLD       0.607100
     41 O42         -5.1420     1.3930    -1.5580 o          1 QLD      -0.527000
     42 O43         -5.9810    -0.4230    -2.5540 os         1 QLD      -0.426900
     43 C44         -8.0190    -0.6520    -3.7630 c3         1 QLD      -0.096100
     44 C45         -7.1620     0.2910    -2.9550 c3         1 QLD       0.144400
     45 H50          5.4670     1.2210     0.6740 ha         1 QLD       0.163000
     46 H53         -0.8190     2.6550    -2.2850 hc         1 QLD       0.059700
     47 H54          0.5930     2.1740    -3.1860 hc         1 QLD       0.059700
     48 H52          1.2440     3.0880    -1.0850 h1         1 QLD       0.085700
     49 H56         -0.0780    -0.0480    -3.2910 hc         1 QLD       0.040700
     50 H55         -0.5850    -0.0890    -1.6310 hc         1 QLD       0.040700
     51 H58         -2.6110     1.4020    -2.4890 hc         1 QLD       0.054200
     52 H57         -2.1590     0.8100    -4.0560 hc         1 QLD       0.054200
     53 H61         -0.4780     1.7300     3.3580 h4         1 QLD       0.179000
     54 H46          9.6970    -1.0220     0.1070 ha         1 QLD       0.154000
     55 H47          9.0820    -3.4010    -0.1020 ha         1 QLD       0.161000
     56 H48          4.9430    -2.3130    -0.2170 ha         1 QLD       0.158000
     57 H49          9.2520     1.0840     1.9770 h5         1 QLD       0.078100
     58 H51          3.8560    -0.5530    -1.2270 ha         1 QLD       0.133000
     59 H59          1.8280     0.2880    -1.6080 hn         1 QLD       0.324500
     60 H60          1.3430     2.3790     1.7260 hn         1 QLD       0.324700
     61 H62         -2.9880     1.5900     3.7770 ha         1 QLD       0.124000
     62 H63         -5.1580     0.6530     4.3900 ha         1 QLD       0.128000
     63 H64         -5.4770    -1.1100     0.4960 ha         1 QLD       0.163000
     64 H65         -6.9240    -0.6410     3.8640 hn         1 QLD       0.330500
     65 H66         -9.5910    -3.2240     1.8550 h1         1 QLD       0.048700
     66 H68        -10.5870    -2.3990     3.0690 h1         1 QLD       0.048700
     67 H67        -10.2720    -1.6190     1.5080 h1         1 QLD       0.048700
     68 H70         -3.4960    -1.0100    -3.6210 hc         1 QLD       0.054700
     69 H69         -2.2250    -1.5650    -2.5680 hc         1 QLD       0.054700
     70 H71         -4.2650    -1.6870    -1.3740 h1         1 QLD       0.084700
     71 H72         -2.3850     0.4140    -0.5900 hn         1 QLD       0.473800
     72 H75         -7.5110    -0.9770    -4.6710 hc         1 QLD       0.044700
     73 H74         -8.3030    -1.5330    -3.1880 hc         1 QLD       0.044700
     74 H73         -8.9340    -0.1380    -4.0580 hc         1 QLD       0.044700
     75 H76         -7.6920     0.6380    -2.0660 h1         1 QLD       0.048200
     76 H77         -6.8830     1.1670    -3.5430 h1         1 QLD       0.048200
     77 CL1          6.5300    -4.6410    -0.3530 cl         1 QLD      -0.083400
@<TRIPOS>BOND
     1     1    15 1   
     2     1    22 2   
     3     1    45 1   
     4     2     3 1   
     5     2     5 1   
     6     2    46 1   
     7     2    47 1   
     8     3     7 1   
     9     3    24 1   
    10     3    48 1   
    11     4    22 1   
    12     4    23 2   
    13     4    24 1   
    14     5     6 1   
    15     5    49 1   
    16     5    50 1   
    17     6    37 1   
    18     6    51 1   
    19     6    52 1   
    20     7    25 1   
    21     7    27 2   
    22     8    25 1   
    23     8    26 2   
    24     8    53 1   
    25     9    33 1   
    26     9    34 2   
    27     9    35 1   
    28    10    26 1   
    29    10    28 ar  
    30    10    32 ar  
    31    11    12 ar  
    32    11    16 ar  
    33    11    54 1   
    34    12    13 ar  
    35    12    55 1   
    36    13    14 ar  
    37    13    77 1   
    38    14    15 ar  
    39    14    56 1   
    40    15    16 ar  
    41    16    17 1   
    42    17    18 1   
    43    17    21 1   
    44    18    19 2   
    45    18    57 1   
    46    19    20 1   
    47    20    21 2   
    48    22    58 1   
    49    24    59 1   
    50    25    60 1   
    51    26    27 1   
    52    28    29 ar  
    53    28    61 1   
    54    29    30 ar  
    55    29    62 1   
    56    30    31 ar  
    57    30    33 1   
    58    31    32 ar  
    59    31    63 1   
    60    32    39 1   
    61    33    64 1   
    62    35    36 1   
    63    36    65 1   
    64    36    66 1   
    65    36    67 1   
    66    37    38 1   
    67    37    68 1   
    68    37    69 1   
    69    38    39 1   
    70    38    40 1   
    71    38    70 1   
    72    39    71 1   
    73    40    41 2   
    74    40    42 1   
    75    42    44 1   
    76    43    44 1   
    77    43    72 1   
    78    43    73 1   
    79    43    74 1   
    80    44    75 1   
    81    44    76 1   
@<TRIPOS>SUBSTRUCTURE
     1 QLD         1 TEMP              0 ****  ****    0 ROOT
