@<TRIPOS>MOLECULE
QLE
   65    65     1     0     0
SMALL
No Charge or Current Charge


@<TRIPOS>ATOM
      1 O5          -1.4570     1.1690    -3.3120 o          1 QLE      -0.524100
      2 C22         -1.8920     1.4640    -2.2050 c          1 QLE       0.574300
      3 C20         -1.2950     2.6220    -1.3680 c3         1 QLE      -0.160700
      4 C21         -0.7380     3.7620    -2.2580 c3         1 QLE      -0.078100
      5 C19         -0.2240     2.0730    -0.3610 c3         1 QLE      -0.056400
      6 C17         -0.7720     1.6650     1.0570 c3         1 QLE      -0.055700
      7 C18         -1.2010     2.9380     1.8480 c3         1 QLE      -0.099100
      8 C11          0.1870     0.7750     1.9410 c3         1 QLE       0.194300
      9 O3           1.1980     0.1730     1.1070 os         1 QLE      -0.452100
     10 C12          2.4030    -0.1860     1.6540 c          1 QLE       0.596100
     11 O4           2.7300     0.0210     2.8140 o          1 QLE      -0.491000
     12 C13          3.3690    -0.6840     0.5890 c3         1 QLE      -0.140400
     13 C14          4.0950     0.5140    -0.0530 c3         1 QLE       0.171800
     14 N            5.1550     0.1420    -1.0250 n3         1 QLE      -0.714600
     15 C16          4.6550    -0.5980    -2.2090 c3         1 QLE       0.148100
     16 C15          5.9800     1.3080    -1.4160 c3         1 QLE       0.148100
     17 C9          -0.4910    -0.3580     2.7940 c3         1 QLE      -0.141700
     18 C10         -1.6860     0.1110     3.6640 c3         1 QLE      -0.085100
     19 C8          -0.8710    -1.6260     1.9990 c          1 QLE       0.603100
     20 O2          -0.4760    -2.7400     2.3150 o          1 QLE      -0.495000
     21 O1          -1.7590    -1.3760     0.9820 os         1 QLE      -0.439100
     22 C5          -2.3100    -2.4560     0.1860 c3         1 QLE       0.187300
     23 C6          -1.1780    -3.2240    -0.5850 c3         1 QLE      -0.096400
     24 C7           0.0490    -2.4060    -1.0600 c3         1 QLE      -0.089100
     25 C3          -3.4110    -1.8120    -0.7240 c3         1 QLE      -0.035500
     26 C4          -4.2770    -2.8460    -1.4810 c3         1 QLE      -0.087100
     27 C2          -2.8150    -0.7910    -1.6730 c2         1 QLE      -0.133200
     28 C1          -2.8100     0.5470    -1.4740 ce         1 QLE      -0.307200
     29 H20         -2.1210     3.0170    -0.7700 hc         1 QLE       0.062700
     30 H1          -3.2980     0.9640    -0.5960 ha         1 QLE       0.183000
     31 H211        -1.5090     4.1270    -2.9470 hc         1 QLE       0.040700
     32 H212        -0.4080     4.6070    -1.6420 hc         1 QLE       0.040700
     33 H213         0.1190     3.4160    -2.8500 hc         1 QLE       0.040700
     34 H191         0.2620     1.2180    -0.8470 hc         1 QLE       0.055200
     35 H192         0.5680     2.8190    -0.2160 hc         1 QLE       0.055200
     36 H17         -1.6800     1.0840     0.8960 hc         1 QLE       0.066700
     37 H181        -2.0030     3.4860     1.3430 hc         1 QLE       0.037700
     38 H182        -1.5690     2.6940     2.8480 hc         1 QLE       0.037700
     39 H183        -0.3510     3.6210     1.9670 hc         1 QLE       0.037700
     40 H11          0.6750     1.4670     2.6420 h1         1 QLE       0.067700
     41 H9           0.2620    -0.6960     3.5150 hc         1 QLE       0.093700
     42 H131         4.1080    -1.3510     1.0440 hc         1 QLE       0.080200
     43 H132         2.8020    -1.1930    -0.1950 hc         1 QLE       0.080200
     44 H141         3.3490     1.1600    -0.5380 h1         1 QLE       0.046700
     45 H142         4.5420     1.1020     0.7610 h1         1 QLE       0.046700
     46 H161         3.9120    -0.0040    -2.7580 h1         1 QLE       0.032200
     47 H162         5.4800    -0.8330    -2.8950 h1         1 QLE       0.032200
     48 H163         4.1920    -1.5500    -1.9180 h1         1 QLE       0.032200
     49 H151         6.4140     1.7930    -0.5320 h1         1 QLE       0.032200
     50 H152         6.8070     0.9970    -2.0680 h1         1 QLE       0.032200
     51 H153         5.3770     2.0510    -1.9560 h1         1 QLE       0.032200
     52 H101        -2.5290     0.4460     3.0480 hc         1 QLE       0.046700
     53 H102        -2.0430    -0.7130     4.2950 hc         1 QLE       0.046700
     54 H103        -1.3860     0.9290     4.3300 hc         1 QLE       0.046700
     55 H5          -2.8160    -3.1760     0.8440 h1         1 QLE       0.058700
     56 H61C        -0.8150    -4.0380     0.0530 hc         1 QLE       0.054200
     57 H62C        -1.6110    -3.7270    -1.4560 hc         1 QLE       0.054200
     58 HA          -4.0980    -1.2900    -0.0450 hc         1 QLE       0.058700
     59 H71C         0.6710    -3.0130    -1.7280 hc         1 QLE       0.038033
     60 H72C        -0.2320    -1.4940    -1.5960 hc         1 QLE       0.038033
     61 H73C         0.6700    -2.1190    -0.2070 hc         1 QLE       0.038033
     62 H41C        -4.6870    -3.5900    -0.7880 hc         1 QLE       0.041700
     63 H42C        -5.1180    -2.3450    -1.9750 hc         1 QLE       0.041700
     64 H43C        -3.7020    -3.3710    -2.2520 hc         1 QLE       0.041700
     65 H2          -2.2660    -1.2260    -2.5100 ha         1 QLE       0.187000
@<TRIPOS>BOND
     1     1     2 2   
     2     2     3 1   
     3     2    28 1   
     4     3     4 1   
     5     3     5 1   
     6     3    29 1   
     7     4    31 1   
     8     4    32 1   
     9     4    33 1   
    10     5     6 1   
    11     5    34 1   
    12     5    35 1   
    13     6     7 1   
    14     6     8 1   
    15     6    36 1   
    16     7    37 1   
    17     7    38 1   
    18     7    39 1   
    19     8     9 1   
    20     8    17 1   
    21     8    40 1   
    22     9    10 1   
    23    10    11 2   
    24    10    12 1   
    25    12    13 1   
    26    12    42 1   
    27    12    43 1   
    28    13    14 1   
    29    13    44 1   
    30    13    45 1   
    31    14    15 1   
    32    14    16 1   
    33    15    46 1   
    34    15    47 1   
    35    15    48 1   
    36    16    49 1   
    37    16    50 1   
    38    16    51 1   
    39    17    18 1   
    40    17    19 1   
    41    17    41 1   
    42    18    52 1   
    43    18    53 1   
    44    18    54 1   
    45    19    20 2   
    46    19    21 1   
    47    21    22 1   
    48    22    23 1   
    49    22    25 1   
    50    22    55 1   
    51    23    24 1   
    52    23    56 1   
    53    23    57 1   
    54    24    59 1   
    55    24    60 1   
    56    24    61 1   
    57    25    26 1   
    58    25    27 1   
    59    25    58 1   
    60    26    62 1   
    61    26    63 1   
    62    26    64 1   
    63    27    28 2   
    64    27    65 1   
    65    28    30 1   
@<TRIPOS>SUBSTRUCTURE
     1 QLE         1 TEMP              0 ****  ****    0 ROOT
