@<TRIPOS>MOLECULE
QLE
   65    65     1     0     0
SMALL
abcg2


@<TRIPOS>ATOM
      1 O5          -2.9200     1.3250    -3.1920 o          1 QLE      -0.524100
      2 C22         -2.8590     1.3950    -1.9820 c          1 QLE       0.574300
      3 C20         -2.3020     2.6050    -1.2570 c3         1 QLE      -0.160700
      4 C21         -2.0730     3.7850    -2.1870 c3         1 QLE      -0.078100
      5 C19         -0.9960     2.1770    -0.5270 c3         1 QLE      -0.056400
      6 C17         -1.1910     1.8810     0.9640 c3         1 QLE      -0.055700
      7 C18         -1.5260     3.1700     1.7160 c3         1 QLE      -0.099100
      8 C11          0.0250     1.2180     1.6570 c3         1 QLE       0.194300
      9 O3           0.9580     0.7240     0.6850 os         1 QLE      -0.452100
     10 C12          2.2620     0.7620     0.9430 c          1 QLE       0.596100
     11 O4           2.7330     1.1790     1.9720 o          1 QLE      -0.491000
     12 C13          3.0580     0.2310    -0.2170 c3         1 QLE      -0.140400
     13 C14          4.5200    -0.0020     0.1350 c3         1 QLE       0.171800
     14 N            5.2470    -0.6540    -0.9380 n3         1 QLE      -0.714600
     15 C16          5.3950     0.1940    -2.1030 c3         1 QLE       0.148100
     16 C15          6.5400    -1.1070    -0.4700 c3         1 QLE       0.148100
     17 C9          -0.2940     0.0610     2.6200 c3         1 QLE      -0.141700
     18 C10         -1.4490     0.3530     3.5820 c3         1 QLE      -0.085100
     19 C8          -0.5330    -1.2820     1.9540 c          1 QLE       0.603100
     20 O2          -0.0970    -2.3100     2.4140 o          1 QLE      -0.495000
     21 O1          -1.3070    -1.2220     0.8840 os         1 QLE      -0.439100
     22 C5          -1.7000    -2.4430     0.2250 c3         1 QLE       0.187300
     23 C6          -0.5730    -2.9970    -0.6400 c3         1 QLE      -0.096400
     24 C7           0.0120    -2.0840    -1.7110 c3         1 QLE      -0.089100
     25 C3          -3.0430    -2.1400    -0.4690 c3         1 QLE      -0.035500
     26 C4          -3.5980    -3.3910    -1.1440 c3         1 QLE      -0.087100
     27 C2          -2.9480    -0.9950    -1.4270 c2         1 QLE      -0.133200
     28 C1          -3.2200     0.2660    -1.0990 ce         1 QLE      -0.307200
     29 H20         -3.0500     2.8880    -0.5080 hc         1 QLE       0.062700
     30 H1          -3.5710     0.5040    -0.1010 ha         1 QLE       0.183000
     31 H211        -2.9850     4.0720    -2.7120 hc         1 QLE       0.040700
     32 H212        -1.7360     4.6470    -1.6110 hc         1 QLE       0.040700
     33 H213        -1.3080     3.5660    -2.9330 hc         1 QLE       0.040700
     34 H191        -0.5730     1.3090    -1.0350 hc         1 QLE       0.055200
     35 H192        -0.2600     2.9780    -0.6420 hc         1 QLE       0.055200
     36 H17         -2.0400     1.2040     1.0560 hc         1 QLE       0.066700
     37 H181        -2.4380     3.6370     1.3430 hc         1 QLE       0.037700
     38 H182        -1.6770     2.9970     2.7820 hc         1 QLE       0.037700
     39 H183        -0.7150     3.8940     1.6110 hc         1 QLE       0.037700
     40 H11          0.5280     1.9850     2.2520 h1         1 QLE       0.067700
     41 H9           0.5960    -0.0870     3.2370 hc         1 QLE       0.093700
     42 H131         2.6040    -0.7000    -0.5680 hc         1 QLE       0.080200
     43 H132         2.9490     0.9480    -1.0360 hc         1 QLE       0.080200
     44 H141         4.9920     0.9510     0.4220 h1         1 QLE       0.046700
     45 H142         4.5670    -0.6520     1.0110 h1         1 QLE       0.046700
     46 H161         5.9100     1.1430    -1.8820 h1         1 QLE       0.032200
     47 H162         5.9730    -0.3280    -2.8670 h1         1 QLE       0.032200
     48 H163         4.4260     0.4360    -2.5410 h1         1 QLE       0.032200
     49 H151         6.4160    -1.8000     0.3630 h1         1 QLE       0.032200
     50 H152         7.0620    -1.6340    -1.2690 h1         1 QLE       0.032200
     51 H153         7.1920    -0.2870    -0.1300 h1         1 QLE       0.032200
     52 H101        -2.4050     0.4580     3.0700 hc         1 QLE       0.046700
     53 H102        -1.5460    -0.4550     4.3060 hc         1 QLE       0.046700
     54 H103        -1.2600     1.2680     4.1430 hc         1 QLE       0.046700
     55 H5          -1.9200    -3.1940     0.9900 h1         1 QLE       0.058700
     56 H61C         0.2280    -3.3150     0.0290 hc         1 QLE       0.054200
     57 H62C        -0.9370    -3.9180    -1.1020 hc         1 QLE       0.054200
     58 HA          -3.7300    -1.8540     0.3350 hc         1 QLE       0.058700
     59 H71C         0.9450    -2.5100    -2.0830 hc         1 QLE       0.038033
     60 H72C        -0.6470    -1.9670    -2.5690 hc         1 QLE       0.038033
     61 H73C         0.2380    -1.0910    -1.3250 hc         1 QLE       0.038033
     62 H41C        -3.6080    -4.2390    -0.4580 hc         1 QLE       0.041700
     63 H42C        -4.6230    -3.2210    -1.4730 hc         1 QLE       0.041700
     64 H43C        -3.0150    -3.6740    -2.0210 hc         1 QLE       0.041700
     65 H2          -2.5750    -1.2110    -2.4240 ha         1 QLE       0.187000
@<TRIPOS>BOND
     1     1     2 2   
     2     2     3 1   
     3     2    28 1   
     4     3     4 1   
     5     3     5 1   
     6     3    29 1   
     7     4    31 1   
     8     4    32 1   
     9     4    33 1   
    10     5     6 1   
    11     5    34 1   
    12     5    35 1   
    13     6     7 1   
    14     6     8 1   
    15     6    36 1   
    16     7    37 1   
    17     7    38 1   
    18     7    39 1   
    19     8     9 1   
    20     8    17 1   
    21     8    40 1   
    22     9    10 1   
    23    10    11 2   
    24    10    12 1   
    25    12    13 1   
    26    12    42 1   
    27    12    43 1   
    28    13    14 1   
    29    13    44 1   
    30    13    45 1   
    31    14    15 1   
    32    14    16 1   
    33    15    46 1   
    34    15    47 1   
    35    15    48 1   
    36    16    49 1   
    37    16    50 1   
    38    16    51 1   
    39    17    18 1   
    40    17    19 1   
    41    17    41 1   
    42    18    52 1   
    43    18    53 1   
    44    18    54 1   
    45    19    20 2   
    46    19    21 1   
    47    21    22 1   
    48    22    23 1   
    49    22    25 1   
    50    22    55 1   
    51    23    24 1   
    52    23    56 1   
    53    23    57 1   
    54    24    59 1   
    55    24    60 1   
    56    24    61 1   
    57    25    26 1   
    58    25    27 1   
    59    25    58 1   
    60    26    62 1   
    61    26    63 1   
    62    26    64 1   
    63    27    28 2   
    64    27    65 1   
    65    28    30 1   
@<TRIPOS>SUBSTRUCTURE
     1 QLE         1 TEMP              0 ****  ****    0 ROOT
