@<TRIPOS>MOLECULE
QLF
   44    47     1     0     0
SMALL
No Charge or Current Charge


@<TRIPOS>ATOM
      1 C18        -50.3530   -28.7450     5.9960 ca         1 QLF       0.624900
      2 C16        -48.5950   -29.8620     4.7900 ca         1 QLF       0.001000
      3 C17        -49.3940   -29.7670     5.9400 ca         1 QLF      -0.214300
      4 C15        -48.8000   -28.9160     3.7580 ca         1 QLF      -0.242600
      5 C14        -48.0150   -28.9040     2.4790 c          1 QLF       0.612700
      6 C12        -46.1970   -29.8820     1.1520 c5         1 QLF       0.164000
      7 C11        -45.5510   -31.2010     0.8170 ca         1 QLF      -0.049300
      8 C10        -46.1940   -32.4460     0.7110 ca         1 QLF      -0.111000
      9 C20        -51.3300   -29.6290     8.0870 c6         1 QLF       0.242800
     10 C02        -44.5970   -28.9260     3.0130 c          1 QLF       0.718000
     11 C03        -44.9250   -28.9890     1.4930 c5         1 QLF      -0.207700
     12 C04        -43.7090   -29.6600     0.7320 c5         1 QLF      -0.005100
     13 C05        -44.1950   -31.0800     0.5760 ca         1 QLF      -0.079300
     14 C06        -43.4260   -32.2040     0.2230 ca         1 QLF       0.129100
     15 C08        -44.0530   -33.4590     0.1190 ca         1 QLF      -0.211000
     16 C09        -45.4360   -33.5800     0.3630 ca         1 QLF      -0.098000
     17 C21        -49.9410   -30.2410     8.3920 c6         1 QLF      -0.092400
     18 C22        -49.2580   -30.7640     7.1000 c6         1 QLF      -0.013100
     19 C24        -49.7930   -27.9330     3.9390 ca         1 QLF       0.419900
     20 N13        -47.0630   -29.8920     2.3350 ns         1 QLF      -0.480900
     21 N19        -51.1640   -28.5770     7.0770 nu         1 QLF      -0.956100
     22 N23        -50.5670   -27.8440     5.0460 nb         1 QLF      -0.778000
     23 O01        -44.5590   -27.8290     3.5500 o          1 QLF      -0.726000
     24 O07        -42.0890   -32.0880    -0.0220 oh         1 QLF      -0.539100
     25 O25        -48.2190   -28.0640     1.6130 o          1 QLF      -0.670100
     26 O26        -44.3630   -29.9520     3.6360 o          1 QLF      -0.726000
     27 H161       -47.8490   -30.6510     4.7210 ha         1 QLF       0.156000
     28 H121       -46.7110   -29.5100     0.2550 h1         1 QLF       0.051700
     29 H101       -47.2630   -32.5320     0.8920 ha         1 QLF       0.125000
     30 H201       -51.7820   -29.2260     9.0050 h1         1 QLF       0.031200
     31 H202       -51.9930   -30.4200     7.7040 h1         1 QLF       0.031200
     32 H031       -45.0810   -27.9620     1.1470 hc         1 QLF       0.048700
     33 H041       -43.5460   -29.1940    -0.2470 hc         1 QLF       0.052700
     34 H042       -42.7670   -29.5840     1.2870 hc         1 QLF       0.052700
     35 H081       -43.4770   -34.3400    -0.1530 ha         1 QLF       0.091000
     36 H091       -45.9210   -34.5510     0.2780 ha         1 QLF       0.094000
     37 H212       -49.3040   -29.4780     8.8600 hc         1 QLF       0.047200
     38 H211       -50.0400   -31.0550     9.1230 hc         1 QLF       0.047200
     39 H221       -48.1990   -30.9770     7.3010 hc         1 QLF       0.055200
     40 H222       -49.7170   -31.7180     6.8050 hc         1 QLF       0.055200
     41 H241       -49.9890   -27.1820     3.1740 h4         1 QLF       0.032100
     42 H131       -46.9320   -30.5370     3.1010 hn         1 QLF       0.378500
     43 H191       -51.9110   -27.9070     6.9130 hn         1 QLF       0.494000
     44 H071       -41.7430   -32.9770    -0.2490 ho         1 QLF       0.442000
@<TRIPOS>BOND
     1     1     3 ar  
     2     1    21 1   
     3     1    22 ar  
     4     2     3 ar  
     5     2     4 ar  
     6     2    27 1   
     7     3    18 1   
     8     4     5 1   
     9     4    19 ar  
    10     5    20 1   
    11     5    25 2   
    12     6     7 1   
    13     6    11 1   
    14     6    20 1   
    15     6    28 1   
    16     7     8 ar  
    17     7    13 ar  
    18     8    16 ar  
    19     8    29 1   
    20     9    17 1   
    21     9    21 1   
    22     9    30 1   
    23     9    31 1   
    24    10    11 1   
    25    10    23 1   
    26    10    26 1   
    27    11    12 1   
    28    11    32 1   
    29    12    13 1   
    30    12    33 1   
    31    12    34 1   
    32    13    14 ar  
    33    14    15 ar  
    34    14    24 1   
    35    15    16 ar  
    36    15    35 1   
    37    16    36 1   
    38    17    18 1   
    39    17    37 1   
    40    17    38 1   
    41    18    39 1   
    42    18    40 1   
    43    19    22 ar  
    44    19    41 1   
    45    20    42 1   
    46    21    43 1   
    47    24    44 1   
@<TRIPOS>SUBSTRUCTURE
     1 QLF         1 TEMP              0 ****  ****    0 ROOT
