@<TRIPOS>MOLECULE
QLF
   44    47     1     0     0
SMALL
abcg2


@<TRIPOS>ATOM
      1 C18        -50.7460   -29.4800     5.7540 ca         1 QLF       0.624900
      2 C16        -48.4770   -29.4960     5.0120 ca         1 QLF       0.001000
      3 C17        -49.3600   -29.4790     6.0650 ca         1 QLF      -0.214300
      4 C15        -48.9340   -29.5290     3.6830 ca         1 QLF      -0.242600
      5 C14        -48.0460   -29.5460     2.4910 c          1 QLF       0.612700
      6 C12        -45.7230   -29.7470     1.7100 c5         1 QLF       0.164000
      7 C11        -45.5090   -30.9600     0.8250 ca         1 QLF      -0.049300
      8 C10        -46.4360   -31.8790     0.3560 ca         1 QLF      -0.111000
      9 C20        -51.3370   -29.4690     8.1570 c6         1 QLF       0.242800
     10 C02        -44.0480   -30.3070     3.6130 c          1 QLF       0.718000
     11 C03        -44.2990   -29.5060     2.3010 c5         1 QLF      -0.207700
     12 C04        -43.3750   -29.9390     1.1470 c5         1 QLF      -0.005100
     13 C05        -44.1630   -31.0340     0.4770 ca         1 QLF      -0.079300
     14 C06        -43.7250   -32.0450    -0.3700 ca         1 QLF       0.129100
     15 C08        -44.6440   -32.9820    -0.8490 ca         1 QLF      -0.211000
     16 C09        -45.9860   -32.8970    -0.4840 ca         1 QLF      -0.098000
     17 C21        -49.9860   -28.8040     8.3930 c6         1 QLF      -0.092400
     18 C22        -48.9210   -29.4500     7.5070 c6         1 QLF      -0.013100
     19 C24        -50.3130   -29.5330     3.4980 ca         1 QLF       0.419900
     20 N13        -46.7560   -29.8550     2.7160 ns         1 QLF      -0.480900
     21 N19        -51.6720   -29.4270     6.7410 nu         1 QLF      -0.956100
     22 N23        -51.2020   -29.5100     4.4890 nb         1 QLF      -0.778000
     23 O01        -44.8120   -30.0190     4.5840 o          1 QLF      -0.726000
     24 O07        -42.3960   -32.0890    -0.6930 oh         1 QLF      -0.539100
     25 O25        -48.4810   -29.2990     1.3550 o          1 QLF      -0.670100
     26 O26        -43.1290   -31.1510     3.6430 o          1 QLF      -0.726000
     27 H161       -47.4160   -29.4640     5.2340 ha         1 QLF       0.156000
     28 H121       -45.9780   -28.9020     1.0620 h1         1 QLF       0.051700
     29 H101       -47.4790   -31.8100     0.6360 ha         1 QLF       0.125000
     30 H201       -52.1240   -28.9530     8.7070 h1         1 QLF       0.031200
     31 H202       -51.3060   -30.5050     8.5140 h1         1 QLF       0.031200
     32 H031       -44.1780   -28.4520     2.5530 hc         1 QLF       0.048700
     33 H041       -43.2080   -29.1060     0.4560 hc         1 QLF       0.052700
     34 H042       -42.4060   -30.2740     1.5110 hc         1 QLF       0.052700
     35 H081       -44.3030   -33.7780    -1.5010 ha         1 QLF       0.091000
     36 H091       -46.6820   -33.6360    -0.8610 ha         1 QLF       0.094000
     37 H212       -50.0640   -27.7380     8.1620 hc         1 QLF       0.047200
     38 H211       -49.7160   -28.8960     9.4460 hc         1 QLF       0.047200
     39 H221       -47.9690   -28.9220     7.5930 hc         1 QLF       0.055200
     40 H222       -48.7430   -30.4750     7.8530 hc         1 QLF       0.055200
     41 H241       -50.7120   -29.5580     2.4910 h4         1 QLF       0.032100
     42 H131       -46.3900   -29.9850     3.6580 hn         1 QLF       0.378500
     43 H191       -52.6370   -29.5010     6.4620 hn         1 QLF       0.494000
     44 H071       -42.2230   -32.8480    -1.2660 ho         1 QLF       0.442000
@<TRIPOS>BOND
     1     1     3 ar  
     2     1    21 1   
     3     1    22 ar  
     4     2     3 ar  
     5     2     4 ar  
     6     2    27 1   
     7     3    18 1   
     8     4     5 1   
     9     4    19 ar  
    10     5    20 1   
    11     5    25 2   
    12     6     7 1   
    13     6    11 1   
    14     6    20 1   
    15     6    28 1   
    16     7     8 ar  
    17     7    13 ar  
    18     8    16 ar  
    19     8    29 1   
    20     9    17 1   
    21     9    21 1   
    22     9    30 1   
    23     9    31 1   
    24    10    11 1   
    25    10    23 1   
    26    10    26 1   
    27    11    12 1   
    28    11    32 1   
    29    12    13 1   
    30    12    33 1   
    31    12    34 1   
    32    13    14 ar  
    33    14    15 ar  
    34    14    24 1   
    35    15    16 ar  
    36    15    35 1   
    37    16    36 1   
    38    17    18 1   
    39    17    37 1   
    40    17    38 1   
    41    18    39 1   
    42    18    40 1   
    43    19    22 ar  
    44    19    41 1   
    45    20    42 1   
    46    21    43 1   
    47    24    44 1   
@<TRIPOS>SUBSTRUCTURE
     1 QLF         1 TEMP              0 ****  ****    0 ROOT
