@<TRIPOS>MOLECULE
QLG
   38    38     1     0     0
SMALL
No Charge or Current Charge


@<TRIPOS>ATOM
      1 N            2.1620    -2.7470     0.5850 n2         1 QLG      -0.756100
      2 CA1          1.2590    -1.9520     1.0870 ce         1 QLG       0.450000
      3 CA2          0.2920     1.4130     0.3060 cd         1 QLG       0.007400
      4 CA3          3.5590    -0.1380    -0.1500 c3         1 QLG      -0.069000
      5 C            4.3680    -0.4510     1.1330 c          1 QLG       0.710000
      6 O            3.9390    -0.0600     2.2100 o          1 QLG      -0.710000
      7 CB1          0.2850    -2.5000     2.1260 c3         1 QLG      -0.091700
      8 CB2         -0.5670     2.4740     0.2410 c2         1 QLG      -0.140200
      9 CG1         -0.8410    -3.3830     1.5190 c3         1 QLG      -0.161400
     10 CG2         -1.9860     2.4740     0.7940 c3         1 QLG      -0.032500
     11 CD1         -2.9200     3.3490    -0.0700 c3         1 QLG      -0.081600
     12 CD2         -2.0000     2.9180     2.2720 c3         1 QLG      -0.081600
     13 CD3         -1.8410    -3.9670     2.5230 c          1 QLG       0.605100
     14 NE1         -2.8320    -4.7150     1.9930 nt         1 QLG      -0.624000
     15 OE1         -1.7780    -3.7930     3.7280 o          1 QLG      -0.603100
     16 C1           1.1150    -0.5010     0.7120 cc         1 QLG       0.416600
     17 C2           1.6580     1.4990    -0.2350 c          1 QLG       0.535200
     18 N2          -0.0290     0.1920     0.8790 nd         1 QLG      -0.649300
     19 O2           2.2460     2.4260    -0.7800 o          1 QLG      -0.529000
     20 N3           2.1240     0.2340     0.0580 n          1 QLG      -0.309300
     21 OXT          5.4040    -1.0880     1.0100 o          1 QLG      -0.710000
     22 HD11        -3.9500     3.3020     0.3050 hc         1 QLG       0.029867
     23 HD12        -2.9210     3.0010    -1.1100 hc         1 QLG       0.029867
     24 HD13        -2.5980     4.3970    -0.0580 hc         1 QLG       0.029867
     25 HG2         -2.3880     1.4540     0.7550 hc         1 QLG       0.075700
     26 HD21        -1.6210     3.9420     2.3750 hc         1 QLG       0.029867
     27 HD22        -3.0180     2.8850     2.6780 hc         1 QLG       0.029867
     28 HD23        -1.3700     2.2570     2.8790 hc         1 QLG       0.029867
     29 HB2         -0.2510     3.4130    -0.2170 ha         1 QLG       0.179000
     30 HN           2.6300    -2.2880    -0.2060 hn         1 QLG       0.383400
     31 HB11         0.8420    -3.0900     2.8630 hc         1 QLG       0.087700
     32 HB12        -0.1750    -1.6850     2.6960 hc         1 QLG       0.087700
     33 HG11        -0.4360    -4.2150     0.9300 hc         1 QLG       0.062700
     34 HG12        -1.4120    -2.8460     0.7510 hc         1 QLG       0.062700
     35 HE11        -2.8790    -4.8570     0.9950 hn         1 QLG       0.302500
     36 HE12        -3.5200    -5.1270     2.6050 hn         1 QLG       0.302500
     37 HA31         4.0780     0.6880    -0.6500 h1         1 QLG       0.050200
     38 HA32         3.6200    -0.9990    -0.8260 h1         1 QLG       0.050200
@<TRIPOS>BOND
     1     1     2 2   
     2     1    30 1   
     3     2     7 1   
     4     2    16 1   
     5     3     8 2   
     6     3    17 1   
     7     3    18 1   
     8     4     5 1   
     9     4    20 1   
    10     4    37 1   
    11     4    38 1   
    12     5     6 1   
    13     5    21 1   
    14     7     9 1   
    15     7    31 1   
    16     7    32 1   
    17     8    10 1   
    18     8    29 1   
    19     9    13 1   
    20     9    33 1   
    21     9    34 1   
    22    10    11 1   
    23    10    12 1   
    24    10    25 1   
    25    11    22 1   
    26    11    23 1   
    27    11    24 1   
    28    12    26 1   
    29    12    27 1   
    30    12    28 1   
    31    13    14 1   
    32    13    15 2   
    33    14    35 1   
    34    14    36 1   
    35    16    18 2   
    36    16    20 1   
    37    17    19 2   
    38    17    20 1   
@<TRIPOS>SUBSTRUCTURE
     1 QLG         1 TEMP              0 ****  ****    0 ROOT
