@<TRIPOS>MOLECULE
QLG
   38    38     1     0     0
SMALL
abcg2


@<TRIPOS>ATOM
      1 N            1.8740    -2.7910    -0.1870 n2         1 QLG      -0.756100
      2 CA1          1.2900    -2.0490     0.6580 ce         1 QLG       0.450000
      3 CA2          0.3140     1.3770     0.4070 cd         1 QLG       0.007400
      4 CA3          3.6030    -0.1320     0.0480 c3         1 QLG      -0.069000
      5 C            4.0690    -0.7020     1.4080 c          1 QLG       0.710000
      6 O            3.2120    -0.7910     2.3050 o          1 QLG      -0.710000
      7 CB1          0.5800    -2.6590     1.8320 c3         1 QLG      -0.091700
      8 CB2         -0.5610     2.3870     0.4700 c2         1 QLG      -0.140200
      9 CG1         -0.8700    -2.9790     1.4760 c3         1 QLG      -0.161400
     10 CG2         -1.9840     2.2830     0.9020 c3         1 QLG      -0.032500
     11 CD1         -2.9030     2.8000    -0.2060 c3         1 QLG      -0.081600
     12 CD2         -2.1850     3.0800     2.1930 c3         1 QLG      -0.081600
     13 CD3         -1.6300    -3.6200     2.6180 c          1 QLG       0.605100
     14 NE1         -2.7750    -4.2210     2.2570 nt         1 QLG      -0.624000
     15 OE1         -1.2410    -3.5770     3.7760 o          1 QLG      -0.603100
     16 C1           1.1740    -0.5780     0.5130 cc         1 QLG       0.416600
     17 C2           1.7300     1.5110    -0.0120 c          1 QLG       0.535200
     18 N2           0.0680     0.0430     0.7250 nd         1 QLG      -0.649300
     19 O2           2.3670     2.4980    -0.3180 o          1 QLG      -0.529000
     20 N3           2.2020     0.2180     0.0420 n          1 QLG      -0.309300
     21 OXT          5.2700    -1.0130     1.4540 o          1 QLG      -0.710000
     22 HD11        -3.9460     2.7380     0.1070 hc         1 QLG       0.029867
     23 HD12        -2.7930     2.2190    -1.1220 hc         1 QLG       0.029867
     24 HD13        -2.6870     3.8440    -0.4410 hc         1 QLG       0.029867
     25 HG2         -2.2190     1.2340     1.0980 hc         1 QLG       0.075700
     26 HD21        -1.9420     4.1340     2.0470 hc         1 QLG       0.029867
     27 HD22        -3.2240     3.0170     2.5190 hc         1 QLG       0.029867
     28 HD23        -1.5570     2.6980     2.9990 hc         1 QLG       0.029867
     29 HB2         -0.2040     3.3750     0.1920 ha         1 QLG       0.179000
     30 HN           2.2640    -2.2640    -0.9630 hn         1 QLG       0.383400
     31 HB11         1.1060    -3.5760     2.1020 hc         1 QLG       0.087700
     32 HB12         0.6210    -1.9850     2.6850 hc         1 QLG       0.087700
     33 HG11        -0.9050    -3.6310     0.5990 hc         1 QLG       0.062700
     34 HG12        -1.3940    -2.0600     1.1970 hc         1 QLG       0.062700
     35 HE11        -3.0880    -4.2340     1.3020 hn         1 QLG       0.302500
     36 HE12        -3.3880    -4.6150     2.9520 hn         1 QLG       0.302500
     37 HA31         4.1630     0.7760    -0.1770 h1         1 QLG       0.050200
     38 HA32         3.8360    -0.8370    -0.7520 h1         1 QLG       0.050200
@<TRIPOS>BOND
     1     1     2 2   
     2     1    30 1   
     3     2     7 1   
     4     2    16 1   
     5     3     8 2   
     6     3    17 1   
     7     3    18 1   
     8     4     5 1   
     9     4    20 1   
    10     4    37 1   
    11     4    38 1   
    12     5     6 1   
    13     5    21 1   
    14     7     9 1   
    15     7    31 1   
    16     7    32 1   
    17     8    10 1   
    18     8    29 1   
    19     9    13 1   
    20     9    33 1   
    21     9    34 1   
    22    10    11 1   
    23    10    12 1   
    24    10    25 1   
    25    11    22 1   
    26    11    23 1   
    27    11    24 1   
    28    12    26 1   
    29    12    27 1   
    30    12    28 1   
    31    13    14 1   
    32    13    15 2   
    33    14    35 1   
    34    14    36 1   
    35    16    18 2   
    36    16    20 1   
    37    17    19 2   
    38    17    20 1   
@<TRIPOS>SUBSTRUCTURE
     1 QLG         1 TEMP              0 ****  ****    0 ROOT
