@<TRIPOS>MOLECULE
QLH
   38    40     1     0     0
SMALL
bcc


@<TRIPOS>ATOM
      1 C1         136.2160    -0.7880    40.2930 ca         1 QLH      -0.198000
      2 C2         135.6490    -0.1910    41.4230 ca         1 QLH      -0.049000
      3 C3         134.2860    -0.0480    41.5390 ca         1 QLH      -0.082300
      4 C8         131.3050    -0.9830    39.8130 ca         1 QLH       0.435200
      5 C9         131.7640    -1.7050    38.6970 ca         1 QLH      -0.258300
      6 C10        133.1120    -1.8150    38.4990 ca         1 QLH      -0.065000
      7 C12        133.7160     0.5940    42.6720 cg         1 QLH       0.253800
      8 C14        137.2980    -2.3890    38.1800 c6         1 QLH       0.190800
      9 C15        137.4780    -3.4090    37.0600 c6         1 QLH       0.160500
     10 C16        137.2270    -2.7480    35.7100 c6         1 QLH      -0.077400
     11 C19        135.5640    -1.4070    34.3790 c3         1 QLH       0.667900
     12 C4         135.4270    -1.2630    39.2630 ca         1 QLH       0.186600
     13 C5         134.0030    -1.2010    39.4040 ca         1 QLH      -0.167300
     14 C6         133.4300    -0.5610    40.5270 ca         1 QLH       0.441600
     15 N7         132.0990    -0.4450    40.7030 nb         1 QLH      -0.659000
     16 N11        135.9590    -1.8340    38.1160 nh         1 QLH      -0.664000
     17 N13        133.2820     1.1220    43.6000 n1         1 QLH      -0.361800
     18 C17        135.8470    -2.0910    35.6950 c6         1 QLH      -0.140700
     19 C18        135.7270    -1.1150    36.8670 c6         1 QLH       0.200800
     20 F21        135.6280    -2.2600    33.3470 f          1 QLH      -0.236633
     21 F22        134.3390    -0.8610    34.3500 f          1 QLH      -0.236633
     22 F23        136.4300    -0.4160    34.1110 f          1 QLH      -0.236633
     23 H1         137.2940    -0.8360    40.2250 ha         1 QLH       0.143000
     24 H2         136.2990     0.1890    42.2000 ha         1 QLH       0.147000
     25 H3         130.2400    -0.8680    39.9790 h4         1 QLH       0.025100
     26 H4         131.0580    -2.1700    38.0250 ha         1 QLH       0.147000
     27 H5         133.4930    -2.3940    37.6690 ha         1 QLH       0.145000
     28 H6         137.4350    -2.8800    39.1450 h1         1 QLH       0.053200
     29 H7         138.0720    -1.6130    38.0810 h1         1 QLH       0.053200
     30 H8         136.7170    -4.1910    37.2020 h1         1 QLH       0.032700
     31 H9         137.3120    -3.4950    34.9180 hc         1 QLH       0.066700
     32 H10        138.0060    -1.9980    35.5420 hc         1 QLH       0.066700
     33 H11        135.0820    -2.8660    35.8150 hc         1 QLH       0.089700
     34 H12        136.4680    -0.3100    36.7640 h1         1 QLH       0.060200
     35 H13        134.7460    -0.6440    36.8880 h1         1 QLH       0.060200
     36 N20        138.8370    -3.9200    37.1070 n8         1 QLH      -0.886800
     37 H14        138.9660    -4.4550    37.9570 hn         1 QLH       0.346300
     38 H15        138.9750    -4.5790    36.3500 hn         1 QLH       0.346300
@<TRIPOS>BOND
     1     1     2 ar  
     2     1    12 ar  
     3     1    23 1   
     4     2     3 ar  
     5     2    24 1   
     6     3     7 1   
     7     3    14 ar  
     8     4     5 ar  
     9     4    15 ar  
    10     4    25 1   
    11     5     6 ar  
    12     5    26 1   
    13     6    13 ar  
    14     6    27 1   
    15     7    17 3   
    16     8     9 1   
    17     8    16 1   
    18     8    28 1   
    19     8    29 1   
    20     9    10 1   
    21     9    30 1   
    22     9    36 1   
    23    10    18 1   
    24    10    31 1   
    25    10    32 1   
    26    11    18 1   
    27    11    20 1   
    28    11    21 1   
    29    11    22 1   
    30    12    13 ar  
    31    12    16 1   
    32    13    14 ar  
    33    14    15 ar  
    34    16    19 1   
    35    18    19 1   
    36    18    33 1   
    37    19    34 1   
    38    19    35 1   
    39    36    37 1   
    40    36    38 1   
@<TRIPOS>SUBSTRUCTURE
     1 QLH         1 TEMP              0 ****  ****    0 ROOT
