@<TRIPOS>MOLECULE
QLH
   38    40     1     0     0
SMALL
No Charge or Current Charge


@<TRIPOS>ATOM
      1 C1         136.1670    -0.3870    40.1330 ca         1 QLH      -0.180000
      2 C2         135.6130     0.2080    41.2720 ca         1 QLH      -0.031000
      3 C3         134.2370     0.0890    41.5340 ca         1 QLH      -0.017000
      4 C8         131.2790    -1.4470    40.0640 ca         1 QLH       0.369900
      5 C9         131.7750    -2.0720    38.9160 ca         1 QLH      -0.175000
      6 C10        133.1400    -1.9720    38.6240 ca         1 QLH      -0.047000
      7 C12        133.7080     0.7180    42.7140 cg         1 QLH       0.343000
      8 C14        137.1930    -2.5060    38.2270 c6         1 QLH       0.190800
      9 C15        137.3380    -3.5160    37.0420 c6         1 QLH       0.160500
     10 C16        137.2640    -2.7710    35.6870 c6         1 QLH      -0.077400
     11 C19        135.8350    -1.1550    34.2450 c3         1 QLH       0.304000
     12 C4         135.3610    -1.1110    39.2420 ca         1 QLH       0.325000
     13 C5         133.9750    -1.2390    39.4980 ca         1 QLH      -0.102000
     14 C6         133.3970    -0.6360    40.6520 ca         1 QLH       0.311000
     15 N7         132.0660    -0.7480    40.9120 nb         1 QLH      -0.659000
     16 N11        135.9550    -1.6800    38.0940 nh         1 QLH      -0.802400
     17 N13        133.2990     1.2360    43.6780 n1         1 QLH      -0.451000
     18 C17        135.9650    -1.9120    35.6010 c6         1 QLH      -0.140700
     19 C18        135.8740    -0.9380    36.8080 c6         1 QLH       0.200800
     20 F21        135.8560    -2.0070    33.1950 f          1 QLH      -0.115333
     21 F22        134.6730    -0.4670    34.1700 f          1 QLH      -0.115333
     22 F23        136.8400    -0.2670    34.0630 f          1 QLH      -0.115333
     23 H1         137.2290    -0.2760    39.9370 ha         1 QLH       0.125000
     24 H2         136.2550     0.7680    41.9510 ha         1 QLH       0.129000
     25 H3         130.2210    -1.5070    40.3180 h4         1 QLH       0.025100
     26 H4         131.1040    -2.6270    38.2660 ha         1 QLH       0.129000
     27 H5         133.5350    -2.4620    37.7370 ha         1 QLH       0.127000
     28 H6         137.1690    -3.0690    39.1710 h1         1 QLH       0.053200
     29 H7         138.0780    -1.8530    38.2540 h1         1 QLH       0.053200
     30 H8         136.5000    -4.2280    37.0930 h1         1 QLH       0.032700
     31 H9         137.2920    -3.4980    34.8630 hc         1 QLH       0.066700
     32 H10        138.1470    -2.1280    35.5710 hc         1 QLH       0.066700
     33 H11        135.1010    -2.5880    35.6480 hc         1 QLH       0.089700
     34 H12        136.6860    -0.1980    36.7500 h1         1 QLH       0.060200
     35 H13        134.9250    -0.3840    36.7540 h1         1 QLH       0.060200
     36 N20        138.5890    -4.3120    37.1210 n8         1 QLH      -0.997200
     37 H14        138.5520    -4.9050    37.9590 hn         1 QLH       0.401500
     38 H15        138.5940    -4.9940    36.3530 hn         1 QLH       0.401500
@<TRIPOS>BOND
     1     1     2 ar  
     2     1    12 ar  
     3     1    23 1   
     4     2     3 ar  
     5     2    24 1   
     6     3     7 1   
     7     3    14 ar  
     8     4     5 ar  
     9     4    15 ar  
    10     4    25 1   
    11     5     6 ar  
    12     5    26 1   
    13     6    13 ar  
    14     6    27 1   
    15     7    17 3   
    16     8     9 1   
    17     8    16 1   
    18     8    28 1   
    19     8    29 1   
    20     9    10 1   
    21     9    30 1   
    22     9    36 1   
    23    10    18 1   
    24    10    31 1   
    25    10    32 1   
    26    11    18 1   
    27    11    20 1   
    28    11    21 1   
    29    11    22 1   
    30    12    13 ar  
    31    12    16 1   
    32    13    14 ar  
    33    14    15 ar  
    34    16    19 1   
    35    18    19 1   
    36    18    33 1   
    37    19    34 1   
    38    19    35 1   
    39    36    37 1   
    40    36    38 1   
@<TRIPOS>SUBSTRUCTURE
     1 QLH         1 TEMP              0 ****  ****    0 ROOT
