@<TRIPOS>MOLECULE
QLI
   25    25     1     0     0
SMALL
bcc


@<TRIPOS>ATOM
      1 CAA         -2.9610     1.5430    -0.4020 c2         1 QLI      -0.421000
      2 NAB          1.9690     1.4900    -1.6060 n8         1 QLI      -0.887800
      3 OAC         -4.4620    -0.7760    -0.0070 o          1 QLI      -0.817800
      4 OAD          3.5320    -1.6250     1.0290 o          1 QLI      -0.846800
      5 OAE         -2.5880    -1.9660     0.2050 o          1 QLI      -0.817800
      6 OAF          3.2260    -1.3810    -1.1650 o          1 QLI      -0.846800
      7 CAG          0.9180     1.6860     1.6680 ce         1 QLI      -0.105000
      8 CAH          1.8350     0.5740     1.4660 ce         1 QLI      -0.159000
      9 CAI         -0.0030     2.0000     0.7550 c2         1 QLI      -0.201200
     10 OAJ         -1.0710     0.0880    -0.2300 os         1 QLI      -0.276900
     11 CAK         -2.3920     0.3480    -0.2210 ce         1 QLI       0.034900
     12 CAL         -3.2260    -0.9180     0.0150 c          1 QLI       0.930800
     13 CAM          2.9930    -1.1070     0.0320 c          1 QLI       0.924800
     14 CAN          1.9660    -0.0180     0.2730 cf         1 QLI      -0.126400
     15 CAO          1.1660     0.4940    -0.8970 c6         1 QLI       0.200700
     16 CAP         -0.1500     1.1500    -0.4750 c6         1 QLI       0.173300
     17 HAA         -4.0370     1.6110    -0.3920 ha         1 QLI       0.095000
     18 HAAA        -2.4150     2.4640    -0.5530 ha         1 QLI       0.095000
     19 HNAB         2.8440     1.0500    -1.8630 hn         1 QLI       0.326800
     20 HNAA         1.5130     1.7120    -2.4850 hn         1 QLI       0.326800
     21 HAG          0.9980     2.2600     2.5830 ha         1 QLI       0.083000
     22 HAH          2.4410     0.2450     2.3020 ha         1 QLI       0.127000
     23 HAI         -0.6830     2.8270     0.9140 ha         1 QLI       0.101000
     24 HAO          0.9000    -0.3560    -1.5400 h1         1 QLI       0.067700
     25 HAP         -0.5120     1.7530    -1.3180 h1         1 QLI       0.020700
@<TRIPOS>BOND
     1     1    11 2   
     2     1    17 1   
     3     1    18 1   
     4     2    15 1   
     5     2    19 1   
     6     2    20 1   
     7     3    12 1   
     8     4    13 1   
     9     5    12 1   
    10     6    13 1   
    11     7     8 1   
    12     7     9 2   
    13     7    21 1   
    14     8    14 2   
    15     8    22 1   
    16     9    16 1   
    17     9    23 1   
    18    10    11 1   
    19    10    16 1   
    20    11    12 1   
    21    13    14 1   
    22    14    15 1   
    23    15    16 1   
    24    15    24 1   
    25    16    25 1   
@<TRIPOS>SUBSTRUCTURE
     1 QLI         1 TEMP              0 ****  ****    0 ROOT
