@<TRIPOS>MOLECULE
QLI
   25    25     1     0     0
SMALL
No Charge or Current Charge


@<TRIPOS>ATOM
      1 CAA         -3.0300     1.5410    -0.4370 c2         1 QLI      -0.521000
      2 NAB          2.1040     1.5620    -1.6560 n8         1 QLI      -0.998200
      3 OAC         -4.5220    -0.8350     0.1860 o          1 QLI      -0.712500
      4 OAD          3.6210    -1.5830     1.0120 o          1 QLI      -0.741500
      5 OAE         -2.7330    -2.0160     0.2450 o          1 QLI      -0.712500
      6 OAF          3.1130    -1.6190    -1.0690 o          1 QLI      -0.741500
      7 CAG          0.9040     1.6730     1.7190 ce         1 QLI      -0.155000
      8 CAH          1.8630     0.5910     1.4970 ce         1 QLI      -0.209000
      9 CAI         -0.0220     1.9690     0.7850 c2         1 QLI      -0.251200
     10 OAJ         -1.0890     0.0850    -0.3290 os         1 QLI      -0.300100
     11 CAK         -2.4650     0.3130    -0.2440 ce         1 QLI       0.034900
     12 CAL         -3.3030    -0.9410     0.0890 c          1 QLI       0.720200
     13 CAM          2.9980    -1.1460     0.0530 c          1 QLI       0.714200
     14 CAN          2.0530     0.0120     0.2670 cf         1 QLI      -0.126400
     15 CAO          1.2550     0.5600    -0.9430 c6         1 QLI       0.200700
     16 CAP         -0.1360     1.1600    -0.5100 c6         1 QLI       0.196500
     17 HAA         -4.1090     1.6780    -0.3600 ha         1 QLI       0.145000
     18 HAAA        -2.4600     2.4350    -0.6780 ha         1 QLI       0.145000
     19 HNAB         2.9360     1.0760    -2.0060 hn         1 QLI       0.382000
     20 HNAA         1.6150     1.8570    -2.5080 hn         1 QLI       0.382000
     21 HAG          0.9550     2.2210     2.6620 ha         1 QLI       0.133000
     22 HAH          2.4330     0.2410     2.3590 ha         1 QLI       0.177000
     23 HAI         -0.7420     2.7720     0.9350 ha         1 QLI       0.151000
     24 HAO          1.0550    -0.2580    -1.6530 h1         1 QLI       0.067700
     25 HAP         -0.4930     1.8010    -1.3290 h1         1 QLI       0.020700
@<TRIPOS>BOND
     1     1    11 2   
     2     1    17 1   
     3     1    18 1   
     4     2    15 1   
     5     2    19 1   
     6     2    20 1   
     7     3    12 1   
     8     4    13 1   
     9     5    12 1   
    10     6    13 1   
    11     7     8 1   
    12     7     9 2   
    13     7    21 1   
    14     8    14 2   
    15     8    22 1   
    16     9    16 1   
    17     9    23 1   
    18    10    11 1   
    19    10    16 1   
    20    11    12 1   
    21    13    14 1   
    22    14    15 1   
    23    15    16 1   
    24    15    24 1   
    25    16    25 1   
@<TRIPOS>SUBSTRUCTURE
     1 QLI         1 TEMP              0 ****  ****    0 ROOT
