@<TRIPOS>MOLECULE
QLJ
   79    83     1     0     0
SMALL
No Charge or Current Charge


@<TRIPOS>ATOM
      1 C18         -4.4300    -2.2970     0.0260 c3         1 QLJ       0.177500
      2 C17         -1.6010     0.1370     1.0900 ca         1 QLJ      -0.148000
      3 C16         -2.4500     0.5890     2.1190 cp         1 QLJ       0.011000
      4 C15         -1.9120     0.6130     3.4210 ca         1 QLJ      -0.153000
      5 C19         -8.6820     2.9490     0.8040 c          1 QLJ       0.646100
      6 C23          0.3300    -2.3880    -0.0790 c3         1 QLJ      -0.084400
      7 C24         -1.1140    -2.7620    -0.5250 c3         1 QLJ      -0.078400
      8 C11          0.5780    -0.8840     0.2480 c3         1 QLJ       0.069400
      9 C34          9.5510     0.4290     0.6280 ca         1 QLJ      -0.091000
     10 C33          9.1930     0.7350    -0.6940 ca         1 QLJ      -0.096000
     11 C2          -4.7430    -0.0630     1.2960 ca         1 QLJ       0.361000
     12 C3          -3.8730     0.9220     1.8240 cp         1 QLJ      -0.139000
     13 C4          -4.3750     2.2280     2.0150 ca         1 QLJ      -0.026000
     14 C5          -5.7020     2.5430     1.6750 ca         1 QLJ      -0.176000
     15 C6          -6.5570     1.5570     1.1370 ca         1 QLJ       0.040000
     16 C7          -6.0650     0.2530     0.9580 ca         1 QLJ      -0.224000
     17 N8          -4.2810    -1.3740     1.1920 nu         1 QLJ      -0.947200
     18 N9          -7.9070     1.8050     0.7720 ns         1 QLJ      -0.140000
     19 C10         -0.3100    -0.3310     1.3800 ca         1 QLJ       0.327300
     20 N12          2.0080    -0.6450     0.5110 ns         1 QLJ      -0.484900
     21 N13          0.1920    -0.3140     2.6420 nb         1 QLJ      -0.677000
     22 C14         -0.5970     0.1640     3.6350 ca         1 QLJ       0.335900
     23 O20         -8.3270     4.0590     1.1770 o          1 QLJ      -0.517000
     24 O21         -9.9340     2.6490     0.3410 os         1 QLJ      -0.461100
     25 C25         -2.0170    -3.2740     0.6270 c3         1 QLJ      -0.084400
     26 C26         -3.5130    -3.5380     0.2620 c3         1 QLJ      -0.075400
     27 C28          4.3510    -0.2940     0.0970 ce         1 QLJ      -0.259200
     28 O29          2.7490    -0.5980    -1.6440 o          1 QLJ      -0.591100
     29 C30          5.4730    -0.1380    -0.6680 cf         1 QLJ      -0.102200
     30 C31          6.8760     0.0780    -0.2350 ca         1 QLJ      -0.020800
     31 C32          7.8640     0.5660    -1.1330 ca         1 QLJ       0.005800
     32 C35          8.5810    -0.0480     1.5180 ca         1 QLJ       0.127000
     33 C36          7.2550    -0.2230     1.0920 ca         1 QLJ      -0.090000
     34 N37          7.5520     0.9130    -2.4460 na         1 QLJ       0.000500
     35 C38          6.8610     2.0270    -2.8230 cc         1 QLJ       0.392400
     36 N39          6.7790     1.9570    -4.1400 nd         1 QLJ      -0.378000
     37 N40          7.4300     0.7940    -4.5190 nd         1 QLJ      -0.037000
     38 N41          7.9100     0.1400    -3.4900 nc         1 QLJ      -0.185800
     39 C42         -4.2240    -1.6490    -1.3950 c          1 QLJ       0.555100
     40 O43         -3.8460    -0.5000    -1.6000 o          1 QLJ      -0.478000
     41 O44         -4.5790    -2.5190    -2.3970 os         1 QLJ      -0.454100
     42 C45         -4.8940    -3.2310    -4.6640 c3         1 QLJ      -0.097100
     43 C46         -4.4530    -2.0720    -3.7570 c3         1 QLJ       0.165600
     44 H57         -5.4650    -2.6640     0.0020 h1         1 QLJ       0.081700
     45 H56         -1.9620     0.1170     0.0680 ha         1 QLJ       0.147000
     46 H55         -2.5130     0.9470     4.2610 ha         1 QLJ       0.129000
     47 H58        -11.0860     4.1270     1.2880 h1         1 QLJ       0.050700
     48 H59        -10.5670     4.5200    -0.3700 h1         1 QLJ       0.050700
     49 H60        -11.8610     3.3340    -0.0990 h1         1 QLJ       0.050700
     50 H62          0.6230    -3.0030     0.7810 hc         1 QLJ       0.050200
     51 H61          1.0070    -2.6710    -0.8940 hc         1 QLJ       0.050200
     52 H63         -1.5680    -1.9060    -1.0320 hc         1 QLJ       0.049700
     53 H64         -1.0500    -3.5570    -1.2780 hc         1 QLJ       0.049700
     54 H52          0.3230    -0.3120    -0.6540 h1         1 QLJ       0.084700
     55 H71          9.9490     1.1110    -1.3810 ha         1 QLJ       0.134000
     56 H47         -3.7230     3.0020     2.4150 ha         1 QLJ       0.120000
     57 H48         -6.0420     3.5610     1.8340 ha         1 QLJ       0.151000
     58 H49         -6.7170    -0.5240     0.5700 ha         1 QLJ       0.111000
     59 H50         -3.4170    -1.5040     1.7110 hn         1 QLJ       0.478000
     60 H51         -8.3970     0.9930     0.4240 hn         1 QLJ       0.164000
     61 H53          2.2920    -0.5480     1.4790 hn         1 QLJ       0.315500
     62 H54         -0.1680     0.1650     4.6360 h4         1 QLJ       0.017100
     63 H65         -1.5920    -4.2230     0.9780 hc         1 QLJ       0.045200
     64 H66         -1.9500    -2.6010     1.4880 hc         1 QLJ       0.045200
     65 H67         -3.9530    -4.1130     1.0870 hc         1 QLJ       0.060200
     66 H68         -3.5600    -4.2010    -0.6110 hc         1 QLJ       0.060200
     67 H69          4.4240    -0.2400     1.1800 ha         1 QLJ       0.178000
     68 H70          5.3320    -0.2020    -1.7500 ha         1 QLJ       0.214000
     69 H73          6.5320    -0.6120     1.8010 ha         1 QLJ       0.140000
     70 H74          6.4750     2.7820    -2.1500 h5         1 QLJ       0.077100
     71 H76         -5.9350    -3.5070    -4.4610 hc         1 QLJ       0.047367
     72 H75         -4.8150    -2.9400    -5.7180 hc         1 QLJ       0.047367
     73 H77         -4.2600    -4.1110    -4.5020 hc         1 QLJ       0.047367
     74 H78         -5.0910    -1.1970    -3.9440 h1         1 QLJ       0.050700
     75 H79         -3.4130    -1.8020    -3.9870 h1         1 QLJ       0.050700
     76 C27          2.9860    -0.5250    -0.4470 c          1 QLJ       0.603300
     77 H72         10.5780     0.5630     0.9620 ha         1 QLJ       0.141000
     78 C22        -10.9060     3.7100     0.2890 c3         1 QLJ       0.170900
     79 Cl1          9.0280    -0.4360     3.1750 cl         1 QLJ      -0.180000
@<TRIPOS>BOND
     1     1    17 1   
     2     1    26 1   
     3     1    39 1   
     4     1    44 1   
     5     2     3 ar  
     6     2    19 ar  
     7     2    45 1   
     8     3     4 ar  
     9     3    12 1   
    10     4    22 ar  
    11     4    46 1   
    12     5    18 1   
    13     5    23 2   
    14     5    24 1   
    15     6     7 1   
    16     6     8 1   
    17     6    50 1   
    18     6    51 1   
    19     7    25 1   
    20     7    52 1   
    21     7    53 1   
    22     8    19 1   
    23     8    20 1   
    24     8    54 1   
    25     9    10 ar  
    26     9    32 ar  
    27     9    77 1   
    28    10    31 ar  
    29    10    55 1   
    30    11    12 ar  
    31    11    16 ar  
    32    11    17 1   
    33    12    13 ar  
    34    13    14 ar  
    35    13    56 1   
    36    14    15 ar  
    37    14    57 1   
    38    15    16 ar  
    39    15    18 1   
    40    16    58 1   
    41    17    59 1   
    42    18    60 1   
    43    19    21 ar  
    44    20    61 1   
    45    20    76 1   
    46    21    22 ar  
    47    22    62 1   
    48    24    78 1   
    49    25    26 1   
    50    25    63 1   
    51    25    64 1   
    52    26    65 1   
    53    26    66 1   
    54    27    29 2   
    55    27    67 1   
    56    27    76 1   
    57    28    76 2   
    58    29    30 1   
    59    29    68 1   
    60    30    31 ar  
    61    30    33 ar  
    62    31    34 1   
    63    32    33 ar  
    64    32    79 1   
    65    33    69 1   
    66    34    35 1   
    67    34    38 1   
    68    35    36 2   
    69    35    70 1   
    70    36    37 1   
    71    37    38 2   
    72    39    40 2   
    73    39    41 1   
    74    41    43 1   
    75    42    43 1   
    76    42    71 1   
    77    42    72 1   
    78    42    73 1   
    79    43    74 1   
    80    43    75 1   
    81    47    78 1   
    82    48    78 1   
    83    49    78 1   
@<TRIPOS>SUBSTRUCTURE
     1 QLJ         1 TEMP              0 ****  ****    0 ROOT
