@<TRIPOS>MOLECULE
QLJ
   79    83     1     0     0
SMALL
bcc


@<TRIPOS>ATOM
      1 C18         -4.4600    -2.3680     0.3200 c3         1 QLJ       0.177500
      2 C17         -1.2760    -0.0830     0.5550 ca         1 QLJ      -0.231300
      3 C16         -1.9680     0.5870     1.5630 cp         1 QLJ       0.011000
      4 C15         -1.3310     0.7190     2.7910 ca         1 QLJ      -0.236300
      5 C19         -7.9670     3.2190     0.3540 c          1 QLJ       0.762100
      6 C23          0.1250    -3.0240    -0.1330 c3         1 QLJ      -0.084400
      7 C24         -1.3770    -3.2170    -0.4070 c3         1 QLJ      -0.078400
      8 C11          0.6030    -1.5640    -0.2100 c3         1 QLJ       0.069400
      9 C34          9.1930     0.5350     0.7090 ca         1 QLJ      -0.109000
     10 C33          8.7100     1.3060    -0.3340 ca         1 QLJ      -0.114000
     11 C2          -4.3340     0.0210     1.0580 ca         1 QLJ       0.222600
     12 C3          -3.3660     1.0120     1.3300 cp         1 QLJ      -0.139000
     13 C4          -3.7620     2.3380     1.3620 ca         1 QLJ      -0.044000
     14 C5          -5.0640     2.7330     1.0890 ca         1 QLJ      -0.194000
     15 C6          -6.0110     1.7540     0.7850 ca         1 QLJ       0.132600
     16 C7          -5.6400     0.4090     0.7820 ca         1 QLJ      -0.242000
     17 N8          -3.9740    -1.3060     1.1520 nu         1 QLJ      -0.753600
     18 N9          -7.3510     2.0160     0.4980 ns         1 QLJ      -0.466100
     19 C10         -0.0590    -0.6870     0.8340 ca         1 QLJ       0.392600
     20 N12          2.0410    -1.5380    -0.0890 ns         1 QLJ      -0.551900
     21 N13          0.5260    -0.5840     2.0220 nb         1 QLJ      -0.677000
     22 C14         -0.0850     0.1310     2.9580 ca         1 QLJ       0.401200
     23 O20         -7.4480     4.3070     0.4480 o          1 QLJ      -0.566000
     24 O21         -9.2580     3.0250     0.0880 os         1 QLJ      -0.437900
     25 C25         -2.1820    -3.5800     0.8390 c3         1 QLJ      -0.084400
     26 C26         -3.7040    -3.6700     0.6750 c3         1 QLJ      -0.075400
     27 C28          4.2050    -0.5540    -0.0560 ce         1 QLJ      -0.209200
     28 O29          2.2560     0.5860    -0.8160 o          1 QLJ      -0.591100
     29 C30          5.0300     0.4700    -0.2690 cf         1 QLJ      -0.052200
     30 C31          6.4600     0.4650     0.0440 ca         1 QLJ      -0.020800
     31 C32          7.3630     1.2700    -0.6550 ca         1 QLJ       0.005800
     32 C35          8.3090    -0.2770     1.4020 ca         1 QLJ       0.035400
     33 C36          6.9630    -0.3170     1.0840 ca         1 QLJ      -0.108000
     34 N37          6.9120     2.0670    -1.7330 na         1 QLJ       0.000500
     35 C38          7.0270     3.3860    -1.9240 cc         1 QLJ       0.392400
     36 N39          6.5030     3.6740    -3.0840 nd         1 QLJ      -0.378000
     37 N40          6.0720     2.5160    -3.5910 nd         1 QLJ      -0.037000
     38 N41          6.3100     1.5480    -2.8020 nc         1 QLJ      -0.185800
     39 C42         -4.3870    -2.0360    -1.1710 c          1 QLJ       0.604100
     40 O43         -3.8650    -1.0570    -1.6430 o          1 QLJ      -0.527000
     41 O44         -5.0020    -2.9620    -1.8870 os         1 QLJ      -0.430900
     42 C45         -5.7260    -4.0180    -3.8960 c3         1 QLJ      -0.097100
     43 C46         -4.9960    -2.8300    -3.3190 c3         1 QLJ       0.142400
     44 H57         -5.5190    -2.5640     0.5280 h1         1 QLJ       0.081700
     45 H56         -1.7100    -0.1660    -0.4320 ha         1 QLJ       0.165000
     46 H55         -1.8070     1.2320     3.6160 ha         1 QLJ       0.147000
     47 H58        -10.0510     4.8320     0.7750 h1         1 QLJ       0.050700
     48 H59         -9.7280     4.7620    -0.9720 h1         1 QLJ       0.050700
     49 H60        -11.0670     3.8280    -0.2780 h1         1 QLJ       0.050700
     50 H62          0.3890    -3.4320     0.8480 hc         1 QLJ       0.050200
     51 H61          0.7080    -3.5860    -0.8660 hc         1 QLJ       0.050200
     52 H63         -1.7710    -2.3150    -0.8770 hc         1 QLJ       0.049700
     53 H64         -1.5100    -4.0110    -1.1470 hc         1 QLJ       0.049700
     54 H52          0.3350    -1.1750    -1.1970 h1         1 QLJ       0.084700
     55 H71          9.3880     1.9280    -0.9010 ha         1 QLJ       0.152000
     56 H47         -3.0230     3.1000     1.5790 ha         1 QLJ       0.138000
     57 H48         -5.3170     3.7800     1.1090 ha         1 QLJ       0.169000
     58 H49         -6.3930    -0.3470     0.5870 ha         1 QLJ       0.129000
     59 H50         -3.0130    -1.4330     1.4130 hn         1 QLJ       0.422800
     60 H51         -7.9320     1.2030     0.3570 hn         1 QLJ       0.330500
     61 H53          2.4890    -2.3020     0.3920 hn         1 QLJ       0.315500
     62 H54          0.4280     0.2180     3.9100 h4         1 QLJ       0.017100
     63 H65         -1.8500    -4.5610     1.1880 hc         1 QLJ       0.045200
     64 H66         -1.9200    -2.9080     1.6640 hc         1 QLJ       0.045200
     65 H67         -4.1180    -4.0250     1.6210 hc         1 QLJ       0.060200
     66 H68         -3.9490    -4.4320    -0.0660 hc         1 QLJ       0.060200
     67 H69          4.5670    -1.5000     0.3320 ha         1 QLJ       0.128000
     68 H70          4.6180     1.3810    -0.6890 ha         1 QLJ       0.164000
     69 H73          6.2930    -0.9320     1.6670 ha         1 QLJ       0.158000
     70 H74          7.4700     4.0670    -1.2170 h5         1 QLJ       0.077100
     71 H76         -6.7670    -4.0460    -3.5730 hc         1 QLJ       0.047367
     72 H75         -5.7150    -3.9470    -4.9830 hc         1 QLJ       0.047367
     73 H77         -5.2480    -4.9560    -3.6170 hc         1 QLJ       0.047367
     74 H78         -5.4810    -1.8940    -3.6030 h1         1 QLJ       0.050700
     75 H79         -3.9640    -2.7960    -3.6750 h1         1 QLJ       0.050700
     76 C27          2.7560    -0.4320    -0.3550 c          1 QLJ       0.670300
     77 H72         10.2420     0.5650     0.9670 ha         1 QLJ       0.159000
     78 C22        -10.0570     4.1890    -0.1050 c3         1 QLJ       0.147700
     79 CL1          8.8940    -1.2500     2.7030 cl         1 QLJ      -0.088400
@<TRIPOS>BOND
     1     1    17 1   
     2     1    26 1   
     3     1    39 1   
     4     1    44 1   
     5     2     3 ar  
     6     2    19 ar  
     7     2    45 1   
     8     3     4 ar  
     9     3    12 1   
    10     4    22 ar  
    11     4    46 1   
    12     5    18 1   
    13     5    23 2   
    14     5    24 1   
    15     6     7 1   
    16     6     8 1   
    17     6    50 1   
    18     6    51 1   
    19     7    25 1   
    20     7    52 1   
    21     7    53 1   
    22     8    19 1   
    23     8    20 1   
    24     8    54 1   
    25     9    10 ar  
    26     9    32 ar  
    27     9    77 1   
    28    10    31 ar  
    29    10    55 1   
    30    11    12 ar  
    31    11    16 ar  
    32    11    17 1   
    33    12    13 ar  
    34    13    14 ar  
    35    13    56 1   
    36    14    15 ar  
    37    14    57 1   
    38    15    16 ar  
    39    15    18 1   
    40    16    58 1   
    41    17    59 1   
    42    18    60 1   
    43    19    21 ar  
    44    20    61 1   
    45    20    76 1   
    46    21    22 ar  
    47    22    62 1   
    48    24    78 1   
    49    25    26 1   
    50    25    63 1   
    51    25    64 1   
    52    26    65 1   
    53    26    66 1   
    54    27    29 2   
    55    27    67 1   
    56    27    76 1   
    57    28    76 2   
    58    29    30 1   
    59    29    68 1   
    60    30    31 ar  
    61    30    33 ar  
    62    31    34 1   
    63    32    33 ar  
    64    32    79 1   
    65    33    69 1   
    66    34    35 1   
    67    34    38 1   
    68    35    36 2   
    69    35    70 1   
    70    36    37 1   
    71    37    38 2   
    72    39    40 2   
    73    39    41 1   
    74    41    43 1   
    75    42    43 1   
    76    42    71 1   
    77    42    72 1   
    78    42    73 1   
    79    43    74 1   
    80    43    75 1   
    81    47    78 1   
    82    48    78 1   
    83    49    78 1   
@<TRIPOS>SUBSTRUCTURE
     1 QLJ         1 TEMP              0 ****  ****    0 ROOT
