@<TRIPOS>MOLECULE
QLL
   46    49     1     0     0
SMALL
No Charge or Current Charge


@<TRIPOS>ATOM
      1 C10         21.0940    -3.3360   -22.8740 ca         1 QLL       0.002800
      2 C11         18.9780    -3.7310   -23.9660 ca         1 QLL       0.222100
      3 C13         13.8880    -4.5840   -20.1950 ca         1 QLL       0.132900
      4 C18         16.7720    -4.2120   -24.9530 c3         1 QLL       0.211900
      5 C19         15.3880    -4.5580   -24.4190 ca         1 QLL      -0.099300
      6 C20         21.0030    -3.2780   -25.2790 ca         1 QLL      -0.029000
      7 C21         21.7600    -3.1620   -24.0920 ca         1 QLL      -0.175000
      8 C22         19.6160    -3.5620   -25.2190 ca         1 QLL      -0.250000
      9 C24         15.0420    -5.8990   -24.1600 ca         1 QLL      -0.081500
     10 C25         14.4480    -3.5400   -24.1640 ca         1 QLL      -0.081500
     11 C26         13.1720    -3.8610   -23.6660 ca         1 QLL      -0.119500
     12 C27         13.7660    -6.2190   -23.6650 ca         1 QLL      -0.119500
     13 C28         12.8290    -5.2010   -23.4210 ca         1 QLL      -0.100000
     14 N1          15.2320    -6.9710   -20.4510 nb         1 QLL      -0.256000
     15 N2          20.5410    -3.5200   -20.6590 nc         1 QLL      -0.512100
     16 C3          19.7670    -3.6060   -22.8190 ca         1 QLL      -0.249900
     17 C4          19.4480    -3.7190   -21.4170 cd         1 QLL       0.381900
     18 C5          13.9110    -6.9770   -20.2190 ca         1 QLL       0.367300
     19 C6          15.8290    -5.7660   -20.5470 ca         1 QLL       0.269300
     20 N7          21.5790    -3.2800   -21.5810 na         1 QLL      -0.071400
     21 C8          13.1670    -5.7890   -20.0820 ca         1 QLL      -0.243000
     22 N9          15.2140    -4.5720   -20.4250 nb         1 QLL      -0.202000
     23 S12         17.5860    -5.7860   -20.8880 ss         1 QLL      -0.295300
     24 C14         18.1000    -4.0000   -20.8010 c3         1 QLL       0.045300
     25 O15         17.6370    -4.0090   -23.8290 os         1 QLL      -0.339100
     26 S16         11.3900    -5.8290   -19.7870 ss         1 QLL      -0.106000
     27 H30         13.4130    -3.6090   -20.1030 h4         1 QLL       0.026100
     28 H35         16.7170    -3.3060   -25.5700 h1         1 QLL       0.045700
     29 H34         17.1390    -5.0350   -25.5820 h1         1 QLL       0.045700
     30 H36         21.4890    -3.1480   -26.2440 ha         1 QLL       0.112000
     31 H37         22.8260    -2.9450   -24.1270 ha         1 QLL       0.123000
     32 H38         19.0590    -3.6440   -26.1470 ha         1 QLL       0.119000
     33 H39          9.7310    -4.0430   -19.9130 h1         1 QLL       0.067033
     34 H41         11.2810    -3.4420   -19.2590 h1         1 QLL       0.067033
     35 H40         11.1020    -3.7350   -21.0190 h1         1 QLL       0.067033
     36 H42         15.7630    -6.6930   -24.3410 ha         1 QLL       0.117500
     37 H43         14.7060    -2.4990   -24.3490 ha         1 QLL       0.117500
     38 H44         12.4510    -3.0710   -23.4710 ha         1 QLL       0.116000
     39 H45         13.5040    -7.2560   -23.4670 ha         1 QLL       0.116000
     40 H46         11.8430    -5.4500   -23.0350 ha         1 QLL       0.117000
     41 H29         22.5390    -3.0940   -21.2950 hn         1 QLL       0.379000
     42 H32         18.1030    -3.6780   -19.7530 h1         1 QLL       0.097700
     43 H31         17.3650    -3.3870   -21.3350 h1         1 QLL       0.097700
     44 H33         14.0250    -8.8590   -20.2460 ho         1 QLL       0.490000
     45 O17         13.3150    -8.1940   -20.1250 oh         1 QLL      -0.632300
     46 C23         10.8220    -4.0870   -20.0180 c3         1 QLL       0.008900
@<TRIPOS>BOND
     1     1     7 ar  
     2     1    16 ar  
     3     1    20 1   
     4     2     8 ar  
     5     2    16 ar  
     6     2    25 1   
     7     3    21 ar  
     8     3    22 ar  
     9     3    27 1   
    10     4     5 1   
    11     4    25 1   
    12     4    28 1   
    13     4    29 1   
    14     5     9 ar  
    15     5    10 ar  
    16     6     7 ar  
    17     6     8 ar  
    18     6    30 1   
    19     7    31 1   
    20     8    32 1   
    21     9    12 ar  
    22     9    36 1   
    23    10    11 ar  
    24    10    37 1   
    25    11    13 ar  
    26    11    38 1   
    27    12    13 ar  
    28    12    39 1   
    29    13    40 1   
    30    14    18 ar  
    31    14    19 ar  
    32    15    17 2   
    33    15    20 1   
    34    16    17 1   
    35    17    24 1   
    36    18    21 ar  
    37    18    45 1   
    38    19    22 ar  
    39    19    23 1   
    40    20    41 1   
    41    21    26 1   
    42    23    24 1   
    43    24    42 1   
    44    24    43 1   
    45    26    46 1   
    46    33    46 1   
    47    34    46 1   
    48    35    46 1   
    49    44    45 1   
@<TRIPOS>SUBSTRUCTURE
     1 QLL         1 TEMP              0 ****  ****    0 ROOT
