@<TRIPOS>MOLECULE
QLL
   46    49     1     0     0
SMALL
abcg2


@<TRIPOS>ATOM
      1 C10         21.0560    -3.4150   -22.8740 ca         1 QLL       0.002800
      2 C11         18.8940    -3.7760   -23.9430 ca         1 QLL       0.222100
      3 C13         13.9340    -4.6110   -20.2340 ca         1 QLL       0.132900
      4 C18         16.7410    -4.2080   -24.9150 c3         1 QLL       0.211900
      5 C19         15.3450    -4.4670   -24.4320 ca         1 QLL      -0.099300
      6 C20         20.9340    -3.4940   -25.2310 ca         1 QLL      -0.029000
      7 C21         21.7200    -3.3420   -24.1080 ca         1 QLL      -0.175000
      8 C22         19.5390    -3.7090   -25.1670 ca         1 QLL      -0.250000
      9 C24         14.9670    -5.7480   -24.0280 ca         1 QLL      -0.081500
     10 C25         14.4160    -3.4310   -24.3610 ca         1 QLL      -0.081500
     11 C26         13.1260    -3.6700   -23.8980 ca         1 QLL      -0.119500
     12 C27         13.6780    -5.9900   -23.5700 ca         1 QLL      -0.119500
     13 C28         12.7550    -4.9510   -23.5050 ca         1 QLL      -0.100000
     14 N1          15.4130    -6.8700   -20.4340 nb         1 QLL      -0.256000
     15 N2          20.5090    -3.4530   -20.6840 nc         1 QLL      -0.512100
     16 C3          19.6660    -3.6300   -22.7720 ca         1 QLL      -0.249900
     17 C4          19.3930    -3.6400   -21.3710 cd         1 QLL       0.381900
     18 C5          14.1070    -6.9580   -20.2970 ca         1 QLL       0.367300
     19 C6          15.9430    -5.6380   -20.4690 ca         1 QLL       0.269300
     20 N7          21.5060    -3.3170   -21.5930 na         1 QLL      -0.071400
     21 C8          13.2720    -5.8250   -20.1850 ca         1 QLL      -0.243000
     22 N9          15.2670    -4.5070   -20.3730 nb         1 QLL      -0.202000
     23 S12         17.6950    -5.6390   -20.6610 ss         1 QLL      -0.295300
     24 C14         18.0910    -3.8460   -20.6840 c3         1 QLL       0.045300
     25 O15         17.5660    -3.9670   -23.7590 os         1 QLL      -0.339100
     26 S16         11.5370    -6.0640   -20.0470 ss         1 QLL      -0.106000
     27 H30         13.3920    -3.6780   -20.1690 h4         1 QLL       0.026100
     28 H35         16.7730    -3.3340   -25.5690 h1         1 QLL       0.045700
     29 H34         17.1350    -5.0710   -25.4560 h1         1 QLL       0.045700
     30 H36         21.3970    -3.4470   -26.2090 ha         1 QLL       0.112000
     31 H37         22.7860    -3.1770   -24.1720 ha         1 QLL       0.123000
     32 H38         18.9860    -3.8160   -26.0880 ha         1 QLL       0.119000
     33 H39          9.8380    -4.4560   -19.9110 h1         1 QLL       0.067033
     34 H41         11.3040    -3.8350   -19.1220 h1         1 QLL       0.067033
     35 H40         11.1690    -3.8280   -20.9070 h1         1 QLL       0.067033
     36 H42         15.6870    -6.5560   -24.0740 ha         1 QLL       0.117500
     37 H43         14.7050    -2.4340   -24.6720 ha         1 QLL       0.117500
     38 H44         12.4120    -2.8570   -23.8460 ha         1 QLL       0.116000
     39 H45         13.3940    -6.9870   -23.2570 ha         1 QLL       0.116000
     40 H46         11.7540    -5.1390   -23.1390 ha         1 QLL       0.117000
     41 H29         22.4480    -3.1490   -21.2790 hn         1 QLL       0.379000
     42 H32         18.1340    -3.4810   -19.6600 h1         1 QLL       0.097700
     43 H31         17.2820    -3.3560   -21.2140 h1         1 QLL       0.097700
     44 H33         14.2290    -8.8430   -20.3700 ho         1 QLL       0.490000
     45 O17         13.5370    -8.1690   -20.2750 oh         1 QLL      -0.632300
     46 C23         10.9190    -4.3640   -19.9930 c3         1 QLL       0.008900
@<TRIPOS>BOND
     1     1     7 ar  
     2     1    16 ar  
     3     1    20 1   
     4     2     8 ar  
     5     2    16 ar  
     6     2    25 1   
     7     3    21 ar  
     8     3    22 ar  
     9     3    27 1   
    10     4     5 1   
    11     4    25 1   
    12     4    28 1   
    13     4    29 1   
    14     5     9 ar  
    15     5    10 ar  
    16     6     7 ar  
    17     6     8 ar  
    18     6    30 1   
    19     7    31 1   
    20     8    32 1   
    21     9    12 ar  
    22     9    36 1   
    23    10    11 ar  
    24    10    37 1   
    25    11    13 ar  
    26    11    38 1   
    27    12    13 ar  
    28    12    39 1   
    29    13    40 1   
    30    14    18 ar  
    31    14    19 ar  
    32    15    17 2   
    33    15    20 1   
    34    16    17 1   
    35    17    24 1   
    36    18    21 ar  
    37    18    45 1   
    38    19    22 ar  
    39    19    23 1   
    40    20    41 1   
    41    21    26 1   
    42    23    24 1   
    43    24    42 1   
    44    24    43 1   
    45    26    46 1   
    46    33    46 1   
    47    34    46 1   
    48    35    46 1   
    49    44    45 1   
@<TRIPOS>SUBSTRUCTURE
     1 QLL         1 TEMP              0 ****  ****    0 ROOT
