@<TRIPOS>MOLECULE
QLM
   74    78     1     0     0
SMALL
No Charge or Current Charge


@<TRIPOS>ATOM
      1 C13          5.3180    -0.2360    -0.6820 ce         1 QLM      -0.099200
      2 C18         -0.1500    -0.3380    -1.9540 c3         1 QLM      -0.098400
      3 C17          0.4540     0.9080    -1.2340 c3         1 QLM       0.095400
      4 C15          2.9180     0.3440    -1.1770 c          1 QLM       0.612300
      5 C19         -0.6350    -1.4690    -0.9990 c3         1 QLM      -0.079400
      6 C20         -1.6390    -2.4610    -1.6500 c3         1 QLM      -0.080400
      7 C22         -0.5550     1.5630    -0.2950 cc         1 QLM       0.367800
      8 C24         -1.5260     2.2550     1.5260 cd         1 QLM       0.240900
      9 C34         -8.8700    -0.0230     1.8800 c          1 QLM       0.645100
     10 C27         -3.9060     1.6460     1.0380 ca         1 QLM      -0.094000
     11 C2           8.9340    -0.6760     0.5100 ca         1 QLM      -0.097000
     12 C3           8.7320    -1.3070     1.7480 ca         1 QLM      -0.090000
     13 C4           7.4300    -1.5800     2.1870 ca         1 QLM       0.126000
     14 C5           6.3290    -1.2230     1.3940 ca         1 QLM      -0.090000
     15 C6           6.5130    -0.5860     0.1480 ca         1 QLM      -0.021800
     16 C7           7.8350    -0.3110    -0.2950 ca         1 QLM       0.007800
     17 N8           8.0800     0.3270    -1.5120 na         1 QLM      -0.001500
     18 C9           8.8130    -0.1950    -2.5370 cc         1 QLM       0.390400
     19 N10          8.9040     0.7730    -3.4330 nd         1 QLM      -0.379000
     20 N11          8.2410     1.8680    -2.9040 nd         1 QLM      -0.035000
     21 N12          7.7540     1.6210    -1.7140 nc         1 QLM      -0.180800
     22 C14          4.0390     0.0030    -0.2650 cf         1 QLM      -0.260200
     23 O16          3.0550     0.4340    -2.3880 o          1 QLM      -0.588100
     24 N21          1.7140     0.5580    -0.5530 ns         1 QLM      -0.487900
     25 N23         -0.2970     2.0390     0.9230 nd         1 QLM      -0.664000
     26 C25         -2.5190     1.9000     0.6520 cc         1 QLM      -0.151000
     27 N26         -1.9100     1.5320    -0.5140 na         1 QLM      -0.282500
     28 C28         -4.6920     2.6840     1.5650 ca         1 QLM      -0.023000
     29 C29         -6.0400     2.4540     1.8880 ca         1 QLM      -0.204000
     30 C30         -6.6220     1.1890     1.6920 ca         1 QLM       0.034000
     31 C31         -5.8250     0.1420     1.1850 ca         1 QLM      -0.200000
     32 C32         -4.4790     0.3630     0.8630 ca         1 QLM       0.348000
     33 N33         -7.9890     1.0300     2.0410 ns         1 QLM      -0.140000
     34 O35         -8.6320    -1.0950     1.3400 o          1 QLM      -0.524000
     35 O36        -10.0840     0.3310     2.4050 os         1 QLM      -0.458100
     36 C37        -11.1560    -0.6280     2.3280 c3         1 QLM       0.170900
     37 C38         -2.9330    -2.7560    -0.8270 c3         1 QLM      -0.080400
     38 C39         -3.9960    -1.6160    -0.7150 c3         1 QLM       0.174500
     39 N40         -3.6810    -0.7030     0.4280 nu         1 QLM      -0.971200
     40 C41         -4.2350    -0.8870    -2.0870 c          1 QLM       0.583100
     41 O42         -3.7870     0.2210    -2.3680 o          1 QLM      -0.469000
     42 O43         -5.0040    -1.6410    -2.9390 os         1 QLM      -0.443100
     43 C44         -5.2990    -1.1000    -4.2400 c3         1 QLM       0.152900
     44 H49          5.5160    -0.1640    -1.7540 ha         1 QLM       0.215000
     45 H52         -0.9870     0.0010    -2.5770 hc         1 QLM       0.055700
     46 H53          0.5840    -0.7540    -2.6550 hc         1 QLM       0.055700
     47 H51          0.6920     1.6540    -2.0040 h1         1 QLM       0.101700
     48 H55          0.2400    -2.0300    -0.6480 hc         1 QLM       0.040700
     49 H54         -1.0750    -1.0430    -0.0940 hc         1 QLM       0.040700
     50 H57         -1.9160    -2.1230    -2.6560 hc         1 QLM       0.052200
     51 H56         -1.1150    -3.4120    -1.8060 hc         1 QLM       0.052200
     52 H59         -1.6160     2.5600     2.5620 h4         1 QLM       0.038100
     53 H45          9.9490    -0.4610     0.1810 ha         1 QLM       0.135000
     54 H46          9.5830    -1.5840     2.3660 ha         1 QLM       0.141000
     55 H47          5.3310    -1.4610     1.7500 ha         1 QLM       0.139000
     56 H48          9.2150    -1.1990    -2.5710 h5         1 QLM       0.077100
     57 H50          3.8030    -0.0430     0.7960 ha         1 QLM       0.178000
     58 H58          1.7030     0.5060     0.4580 hn         1 QLM       0.314500
     59 H74         -2.3720     1.1650    -1.3400 hn         1 QLM       0.368000
     60 H60         -4.2620     3.6740     1.7080 ha         1 QLM       0.124000
     61 H61         -6.6370     3.2710     2.2870 ha         1 QLM       0.117000
     62 H62         -6.2250    -0.8560     1.0600 ha         1 QLM       0.142000
     63 H63         -8.3970     1.8350     2.4950 hn         1 QLM       0.168000
     64 H64        -12.0660    -0.2190     2.7840 h1         1 QLM       0.050700
     65 H66        -11.3820    -0.8810     1.2840 h1         1 QLM       0.050700
     66 H65        -10.8950    -1.5510     2.8620 h1         1 QLM       0.050700
     67 H68         -3.4290    -3.6060    -1.3120 hc         1 QLM       0.055700
     68 H67         -2.6620    -3.1100     0.1760 hc         1 QLM       0.055700
     69 H69         -4.9500    -2.1110    -0.4850 h1         1 QLM       0.064700
     70 H70         -2.6920    -0.4700     0.5130 hn         1 QLM       0.488000
     71 H71         -5.8490    -0.1540    -4.1540 h1         1 QLM       0.051033
     72 H72         -4.3770    -0.9170    -4.8060 h1         1 QLM       0.051033
     73 H73         -5.9170    -1.8020    -4.8140 h1         1 QLM       0.051033
     74 Cl1          7.1750    -2.3770     3.7350 cl         1 QLM      -0.182000
@<TRIPOS>BOND
     1     1    15 1   
     2     1    22 2   
     3     1    44 1   
     4     2     3 1   
     5     2     5 1   
     6     2    45 1   
     7     2    46 1   
     8     3     7 1   
     9     3    24 1   
    10     3    47 1   
    11     4    22 1   
    12     4    23 2   
    13     4    24 1   
    14     5     6 1   
    15     5    48 1   
    16     5    49 1   
    17     6    37 1   
    18     6    50 1   
    19     6    51 1   
    20     7    25 2   
    21     7    27 1   
    22     8    25 1   
    23     8    26 2   
    24     8    52 1   
    25     9    33 1   
    26     9    34 2   
    27     9    35 1   
    28    10    26 1   
    29    10    28 ar  
    30    10    32 ar  
    31    11    12 ar  
    32    11    16 ar  
    33    11    53 1   
    34    12    13 ar  
    35    12    54 1   
    36    13    14 ar  
    37    13    74 1   
    38    14    15 ar  
    39    14    55 1   
    40    15    16 ar  
    41    16    17 1   
    42    17    18 1   
    43    17    21 1   
    44    18    19 2   
    45    18    56 1   
    46    19    20 1   
    47    20    21 2   
    48    22    57 1   
    49    24    58 1   
    50    26    27 1   
    51    27    59 1   
    52    28    29 ar  
    53    28    60 1   
    54    29    30 ar  
    55    29    61 1   
    56    30    31 ar  
    57    30    33 1   
    58    31    32 ar  
    59    31    62 1   
    60    32    39 1   
    61    33    63 1   
    62    35    36 1   
    63    36    64 1   
    64    36    65 1   
    65    36    66 1   
    66    37    38 1   
    67    37    67 1   
    68    37    68 1   
    69    38    39 1   
    70    38    40 1   
    71    38    69 1   
    72    39    70 1   
    73    40    41 2   
    74    40    42 1   
    75    42    43 1   
    76    43    71 1   
    77    43    72 1   
    78    43    73 1   
@<TRIPOS>SUBSTRUCTURE
     1 QLM         1 TEMP              0 ****  ****    0 ROOT
