@<TRIPOS>MOLECULE
QLM
   74    78     1     0     0
SMALL
bcc


@<TRIPOS>ATOM
      1 C13          5.3910     0.1020    -0.7340 ce         1 QLM      -0.049200
      2 C18         -0.2330    -1.0110    -2.2840 c3         1 QLM      -0.098400
      3 C17          0.6120     0.1540    -1.7450 c3         1 QLM       0.095400
      4 C15          3.0220     0.3110    -1.3020 c          1 QLM       0.679300
      5 C19         -0.7860    -1.9630    -1.2100 c3         1 QLM      -0.079400
      6 C20         -2.1470    -2.5730    -1.5840 c3         1 QLM      -0.080400
      7 C22         -0.1600     0.9470    -0.7190 cc         1 QLM       0.367800
      8 C24         -0.7730     1.9310     1.0760 cd         1 QLM       0.306200
      9 C34         -8.4440     0.9670     1.0410 c          1 QLM       0.761100
     10 C27         -3.3540     1.6730     0.7530 ca         1 QLM      -0.094000
     11 C2           8.8640    -0.3840     0.6640 ca         1 QLM      -0.115000
     12 C3           8.9120    -1.7560     0.8370 ca         1 QLM      -0.108000
     13 C4           7.7860    -2.5040     0.5270 ca         1 QLM       0.034400
     14 C5           6.6360    -1.9120     0.0360 ca         1 QLM      -0.108000
     15 C6           6.5790    -0.5310    -0.1560 ca         1 QLM      -0.021800
     16 C7           7.7160     0.2130     0.1710 ca         1 QLM       0.007800
     17 N8           7.7090     1.6190     0.0170 na         1 QLM      -0.001500
     18 C9           8.5580     2.4040    -0.6570 cc         1 QLM       0.390400
     19 N10          8.1910     3.6430    -0.4760 nd         1 QLM      -0.379000
     20 N11          7.1060     3.5970     0.3010 nd         1 QLM      -0.035000
     21 N12          6.8080     2.4010     0.6100 nc         1 QLM      -0.180800
     22 C14          4.1470    -0.3580    -0.6000 cf         1 QLM      -0.210200
     23 O16          3.1740     1.3170    -1.9820 o          1 QLM      -0.588100
     24 N21          1.8440    -0.3240    -1.1680 ns         1 QLM      -0.554900
     25 N23          0.3160     1.4940     0.3720 nd         1 QLM      -0.664000
     26 C25         -1.9320     1.6380     0.4060 cc         1 QLM      -0.165600
     27 N26         -1.5030     1.0490    -0.7550 na         1 QLM      -0.282900
     28 C28         -3.9930     2.8400     1.1470 ca         1 QLM      -0.041000
     29 C29         -5.3530     2.8710     1.4060 ca         1 QLM      -0.222000
     30 C30         -6.1040     1.7040     1.2760 ca         1 QLM       0.126600
     31 C31         -5.4740     0.5050     0.9480 ca         1 QLM      -0.218000
     32 C32         -4.1080     0.4780     0.6770 ca         1 QLM       0.209600
     33 N33         -7.4740     1.7850     1.5310 ns         1 QLM      -0.466100
     34 O35         -8.2720    -0.0150     0.3550 o          1 QLM      -0.573000
     35 O36         -9.6390     1.4080     1.4330 os         1 QLM      -0.434900
     36 C37        -10.7750     0.6680     0.9900 c3         1 QLM       0.147700
     37 C38         -3.0260    -2.9760    -0.3850 c3         1 QLM      -0.080400
     38 C39         -4.0900    -1.9350     0.0330 c3         1 QLM       0.174500
     39 N40         -3.4520    -0.6850     0.3190 nu         1 QLM      -0.777600
     40 C41         -5.0820    -1.7630    -1.1100 c          1 QLM       0.632100
     41 O42         -5.0220    -0.9120    -1.9590 o          1 QLM      -0.518000
     42 O43         -6.0030    -2.7130    -1.0760 os         1 QLM      -0.419900
     43 C44         -6.9870    -2.7140    -2.1110 c3         1 QLM       0.129700
     44 H49          5.5480     0.9940    -1.3310 ha         1 QLM       0.165000
     45 H52         -1.0560    -0.5820    -2.8630 hc         1 QLM       0.055700
     46 H53          0.3670    -1.5590    -3.0130 hc         1 QLM       0.055700
     47 H51          0.8760     0.7950    -2.5890 h1         1 QLM       0.101700
     48 H55         -0.0680    -2.7640    -1.0190 hc         1 QLM       0.040700
     49 H54         -0.8740    -1.4320    -0.2610 hc         1 QLM       0.040700
     50 H57         -2.6900    -1.8700    -2.2200 hc         1 QLM       0.052200
     51 H56         -1.9770    -3.4510    -2.2100 hc         1 QLM       0.052200
     52 H59         -0.6760     2.3980     2.0440 h4         1 QLM       0.038100
     53 H45          9.7220     0.2200     0.9270 ha         1 QLM       0.153000
     54 H46          9.8050    -2.2300     1.2150 ha         1 QLM       0.159000
     55 H47          5.7850    -2.5290    -0.2210 ha         1 QLM       0.157000
     56 H48          9.3890     2.0440    -1.2400 h5         1 QLM       0.077100
     57 H50          3.9260    -1.2230     0.0120 ha         1 QLM       0.128000
     58 H58          1.7840    -1.0980    -0.5240 hn         1 QLM       0.314500
     59 H74         -2.1200     0.6660    -1.4540 hn         1 QLM       0.317700
     60 H60         -3.4200     3.7560     1.2120 ha         1 QLM       0.142000
     61 H61         -5.8310     3.8040     1.6750 ha         1 QLM       0.135000
     62 H62         -6.0490    -0.4080     0.9330 ha         1 QLM       0.160000
     63 H63         -7.7880     2.6230     1.9980 hn         1 QLM       0.334500
     64 H64        -11.6370     1.1620     1.4290 h1         1 QLM       0.050700
     65 H66        -10.8650     0.6870    -0.0950 h1         1 QLM       0.050700
     66 H65        -10.7400    -0.3650     1.3330 h1         1 QLM       0.050700
     67 H68         -3.5470    -3.9110    -0.5920 hc         1 QLM       0.055700
     68 H67         -2.3890    -3.1800     0.4800 hc         1 QLM       0.055700
     69 H69         -4.6350    -2.3460     0.8930 h1         1 QLM       0.064700
     70 H70         -2.5350    -0.7850     0.7250 hn         1 QLM       0.432800
     71 H71         -7.5950    -1.8110    -2.0730 h1         1 QLM       0.051033
     72 H72         -6.5310    -2.8040    -3.0960 h1         1 QLM       0.051033
     73 H73         -7.6150    -3.5800    -1.9240 h1         1 QLM       0.051033
     74 CL1          7.8230    -4.2180     0.7370 cl         1 QLM      -0.090400
@<TRIPOS>BOND
     1     1    15 1   
     2     1    22 2   
     3     1    44 1   
     4     2     3 1   
     5     2     5 1   
     6     2    45 1   
     7     2    46 1   
     8     3     7 1   
     9     3    24 1   
    10     3    47 1   
    11     4    22 1   
    12     4    23 2   
    13     4    24 1   
    14     5     6 1   
    15     5    48 1   
    16     5    49 1   
    17     6    37 1   
    18     6    50 1   
    19     6    51 1   
    20     7    25 2   
    21     7    27 1   
    22     8    25 1   
    23     8    26 2   
    24     8    52 1   
    25     9    33 1   
    26     9    34 2   
    27     9    35 1   
    28    10    26 1   
    29    10    28 ar  
    30    10    32 ar  
    31    11    12 ar  
    32    11    16 ar  
    33    11    53 1   
    34    12    13 ar  
    35    12    54 1   
    36    13    14 ar  
    37    13    74 1   
    38    14    15 ar  
    39    14    55 1   
    40    15    16 ar  
    41    16    17 1   
    42    17    18 1   
    43    17    21 1   
    44    18    19 2   
    45    18    56 1   
    46    19    20 1   
    47    20    21 2   
    48    22    57 1   
    49    24    58 1   
    50    26    27 1   
    51    27    59 1   
    52    28    29 ar  
    53    28    60 1   
    54    29    30 ar  
    55    29    61 1   
    56    30    31 ar  
    57    30    33 1   
    58    31    32 ar  
    59    31    62 1   
    60    32    39 1   
    61    33    63 1   
    62    35    36 1   
    63    36    64 1   
    64    36    65 1   
    65    36    66 1   
    66    37    38 1   
    67    37    67 1   
    68    37    68 1   
    69    38    39 1   
    70    38    40 1   
    71    38    69 1   
    72    39    70 1   
    73    40    41 2   
    74    40    42 1   
    75    42    43 1   
    76    43    71 1   
    77    43    72 1   
    78    43    73 1   
@<TRIPOS>SUBSTRUCTURE
     1 QLM         1 TEMP              0 ****  ****    0 ROOT
