@<TRIPOS>MOLECULE
QLN
   45    48     1     0     0
SMALL
No Charge or Current Charge


@<TRIPOS>ATOM
      1 C01          3.8950    -1.3260     0.0920 ca         1 QLN      -0.207600
      2 N02          2.0120     0.1390     0.4570 n          1 QLN      -0.238500
      3 O03          4.1330     1.0010     0.5030 o          1 QLN      -0.515000
      4 C04          5.2800    -1.5770    -0.0310 ca         1 QLN      -0.036000
      5 N05          1.5750    -2.2030     0.0500 nc         1 QLN      -0.672100
      6 O06         -1.4030     4.9600    -1.0130 o          1 QLN      -0.713000
      7 C07          5.7360    -2.8740    -0.3140 ca         1 QLN      -0.154000
      8 O08         -0.6960     3.4670    -2.3870 o          1 QLN      -0.713000
      9 C09          4.8140    -3.9160    -0.4750 ca         1 QLN      -0.083000
     10 C10          3.4390    -3.6560    -0.3510 ca         1 QLN      -0.117000
     11 C11          2.9620    -2.3630    -0.0650 ca         1 QLN       0.207400
     12 C12          3.3900     0.0350     0.3710 c          1 QLN       0.574600
     13 C13          1.3060     1.3650     0.7010 ca         1 QLN      -0.028400
     14 C14          1.1620    -0.9640     0.3500 cd         1 QLN       0.583200
     15 C15          1.2760     1.9070     1.9960 ca         1 QLN      -0.121000
     16 C16          0.5780     3.1000     2.2390 ca         1 QLN      -0.143000
     17 C17         -0.0880     3.7560     1.1900 ca         1 QLN      -0.076000
     18 C18         -0.0620     3.2290    -0.1230 ca         1 QLN      -0.131600
     19 C19          0.6470     2.0260    -0.3530 ca         1 QLN      -0.069000
     20 C20         -0.7760     3.9390    -1.2610 c          1 QLN       0.714600
     21 C21         -0.3070    -0.9020     0.4370 cf         1 QLN      -0.265600
     22 C22         -1.2330    -1.6180    -0.2710 ce         1 QLN      -0.110200
     23 C23         -2.7220    -1.5410    -0.2110 ca         1 QLN      -0.047800
     24 C24         -3.4900    -2.5440    -0.8370 ca         1 QLN      -0.093500
     25 C25         -4.8950    -2.4970    -0.7990 ca         1 QLN      -0.091500
     26 C26         -5.5490    -1.4430    -0.1380 ca         1 QLN       0.020000
     27 C27         -4.7900    -0.4360     0.4830 ca         1 QLN      -0.091500
     28 C28         -3.3850    -0.4830     0.4470 ca         1 QLN      -0.093500
     29 C29         -6.9820    -1.3930    -0.1000 cg         1 QLN      -0.111000
     30 C30         -8.1960    -1.3500    -0.0590 c1         1 QLN      -0.248000
     31 H1           6.0020    -0.7710     0.0880 ha         1 QLN       0.132000
     32 H3           6.8020    -3.0680    -0.4090 ha         1 QLN       0.108000
     33 H4           5.1610    -4.9240    -0.6950 ha         1 QLN       0.104000
     34 H5           2.7310    -4.4710    -0.4750 ha         1 QLN       0.124000
     35 H6           1.7890     1.4040     2.8130 ha         1 QLN       0.099000
     36 H7           0.5520     3.5180     3.2430 ha         1 QLN       0.093000
     37 H8          -0.6230     4.6800     1.4010 ha         1 QLN       0.132000
     38 H9           0.6830     1.5970    -1.3520 ha         1 QLN       0.141000
     39 H10         -0.6700    -0.1610     1.1440 ha         1 QLN       0.211000
     40 H11         -0.8610    -2.3570    -0.9840 ha         1 QLN       0.193000
     41 H12         -2.9990    -3.3670    -1.3520 ha         1 QLN       0.122500
     42 H13         -5.4730    -3.2800    -1.2850 ha         1 QLN       0.118000
     43 H14         -5.2870     0.3860     0.9940 ha         1 QLN       0.118000
     44 H15         -2.8230     0.3130     0.9260 ha         1 QLN       0.122500
     45 H16         -9.2670    -1.3050    -0.0250 ha         1 QLN       0.252000
@<TRIPOS>BOND
     1     1     4 ar  
     2     1    11 ar  
     3     1    12 1   
     4     2    12 1   
     5     2    13 1   
     6     2    14 1   
     7     3    12 2   
     8     4     7 ar  
     9     4    31 1   
    10     5    11 1   
    11     5    14 2   
    12     6    20 1   
    13     7     9 ar  
    14     7    32 1   
    15     8    20 1   
    16     9    10 ar  
    17     9    33 1   
    18    10    11 ar  
    19    10    34 1   
    20    13    15 ar  
    21    13    19 ar  
    22    14    21 1   
    23    15    16 ar  
    24    15    35 1   
    25    16    17 ar  
    26    16    36 1   
    27    17    18 ar  
    28    17    37 1   
    29    18    19 ar  
    30    18    20 1   
    31    19    38 1   
    32    21    22 2   
    33    21    39 1   
    34    22    23 1   
    35    22    40 1   
    36    23    24 ar  
    37    23    28 ar  
    38    24    25 ar  
    39    24    41 1   
    40    25    26 ar  
    41    25    42 1   
    42    26    27 ar  
    43    26    29 1   
    44    27    28 ar  
    45    27    43 1   
    46    28    44 1   
    47    29    30 3   
    48    30    45 1   
@<TRIPOS>SUBSTRUCTURE
     1 QLN         1 TEMP              0 ****  ****    0 ROOT
