@<TRIPOS>MOLECULE
QLN
   45    48     1     0     0
SMALL
bcc


@<TRIPOS>ATOM
      1 C01          3.7380    -1.2890     0.0700 ca         1 QLN      -0.207600
      2 N02          1.8190     0.0900     0.4390 n          1 QLN      -0.305500
      3 O03          3.8820     1.0130     0.6150 o          1 QLN      -0.590500
      4 C04          5.1180    -1.5030    -0.0070 ca         1 QLN      -0.054000
      5 N05          1.4880    -2.1680    -0.1040 nc         1 QLN      -0.672100
      6 O06         -0.6920     5.3780    -1.0160 o          1 QLN      -0.818300
      7 C07          5.6020    -2.7510    -0.3310 ca         1 QLN      -0.172000
      8 O08          0.0780     3.8480    -2.4430 o          1 QLN      -0.818300
      9 C09          4.7100    -3.8010    -0.5850 ca         1 QLN      -0.101000
     10 C10          3.3500    -3.6030    -0.5110 ca         1 QLN      -0.135000
     11 C11          2.8410    -2.3370    -0.1790 ca         1 QLN       0.207400
     12 C12          3.2080     0.0240     0.3980 c          1 QLN       0.717100
     13 C13          1.2470     1.3780     0.7020 ca         1 QLN      -0.028400
     14 C14          1.0150    -1.0060     0.1920 cd         1 QLN       0.583200
     15 C15          1.0770     1.7970     2.0110 ca         1 QLN      -0.139000
     16 C16          0.5040     3.0390     2.2460 ca         1 QLN      -0.161000
     17 C17          0.1100     3.8400     1.1830 ca         1 QLN      -0.094000
     18 C18          0.2850     3.4200    -0.1330 ca         1 QLN      -0.131600
     19 C19          0.8660     2.1760    -0.3630 ca         1 QLN      -0.087000
     20 C20         -0.1490     4.2960    -1.3040 c          1 QLN       0.925200
     21 C21         -0.4330    -0.8190     0.2810 cf         1 QLN      -0.215600
     22 C22         -1.2930    -1.7540    -0.1450 ce         1 QLN      -0.060200
     23 C23         -2.7460    -1.6670    -0.0990 ca         1 QLN      -0.047800
     24 C24         -3.4910    -2.7420    -0.5900 ca         1 QLN      -0.111500
     25 C25         -4.8740    -2.7220    -0.5780 ca         1 QLN      -0.109500
     26 C26         -5.5530    -1.6130    -0.0700 ca         1 QLN       0.020000
     27 C27         -4.8150    -0.5310     0.4240 ca         1 QLN      -0.109500
     28 C28         -3.4360    -0.5600     0.4090 ca         1 QLN      -0.111500
     29 C29         -6.9780    -1.5830    -0.0510 cg         1 QLN      -0.111000
     30 C30         -8.1810    -1.5580    -0.0280 c1         1 QLN      -0.160500
     31 H1           5.7980    -0.6850     0.1870 ha         1 QLN       0.150000
     32 H3           6.6680    -2.9220    -0.3910 ha         1 QLN       0.126000
     33 H4           5.0950    -4.7790    -0.8420 ha         1 QLN       0.122000
     34 H5           2.6550    -4.4100    -0.7050 ha         1 QLN       0.142000
     35 H6           1.3770     1.1600     2.8330 ha         1 QLN       0.117000
     36 H7           0.3610     3.3790     3.2630 ha         1 QLN       0.111000
     37 H8          -0.3420     4.8030     1.3760 ha         1 QLN       0.150000
     38 H9           1.0120     1.8280    -1.3770 ha         1 QLN       0.159000
     39 H10         -0.7950     0.1070     0.7040 ha         1 QLN       0.161000
     40 H11         -0.8910    -2.6660    -0.5740 ha         1 QLN       0.143000
     41 H12         -2.9770    -3.6080    -0.9880 ha         1 QLN       0.140500
     42 H13         -5.4300    -3.5660    -0.9630 ha         1 QLN       0.136000
     43 H14         -5.3300     0.3340     0.8200 ha         1 QLN       0.136000
     44 H15         -2.9000     0.2950     0.7980 ha         1 QLN       0.140500
     45 H16         -9.2470    -1.5330    -0.0130 ha         1 QLN       0.164500
@<TRIPOS>BOND
     1     1     4 ar  
     2     1    11 ar  
     3     1    12 1   
     4     2    12 1   
     5     2    13 1   
     6     2    14 1   
     7     3    12 2   
     8     4     7 ar  
     9     4    31 1   
    10     5    11 1   
    11     5    14 2   
    12     6    20 1   
    13     7     9 ar  
    14     7    32 1   
    15     8    20 1   
    16     9    10 ar  
    17     9    33 1   
    18    10    11 ar  
    19    10    34 1   
    20    13    15 ar  
    21    13    19 ar  
    22    14    21 1   
    23    15    16 ar  
    24    15    35 1   
    25    16    17 ar  
    26    16    36 1   
    27    17    18 ar  
    28    17    37 1   
    29    18    19 ar  
    30    18    20 1   
    31    19    38 1   
    32    21    22 2   
    33    21    39 1   
    34    22    23 1   
    35    22    40 1   
    36    23    24 ar  
    37    23    28 ar  
    38    24    25 ar  
    39    24    41 1   
    40    25    26 ar  
    41    25    42 1   
    42    26    27 ar  
    43    26    29 1   
    44    27    28 ar  
    45    27    43 1   
    46    28    44 1   
    47    29    30 3   
    48    30    45 1   
@<TRIPOS>SUBSTRUCTURE
     1 QLN         1 TEMP              0 ****  ****    0 ROOT
