@<TRIPOS>MOLECULE
QLO
   49    52     1     0     0
SMALL
abcg2


@<TRIPOS>ATOM
      1 N1         -20.0320     5.6740    27.0050 ns         1 QLO      -0.168000
      2 C4         -22.1460     7.0020    29.1340 c6         1 QLO      -0.114400
      3 C5         -23.3870     7.0560    29.9980 c6         1 QLO       0.163600
      4 C6         -22.7040     5.0320    31.0330 ca         1 QLO       0.146100
      5 C7         -22.8620     4.1570    32.1110 ca         1 QLO      -0.132000
      6 C8         -22.3900     2.8590    32.0400 ca         1 QLO      -0.062000
      7 C10        -21.5870     3.2990    29.8060 ca         1 QLO      -0.051000
      8 C13        -18.7190     5.7350    26.4960 ca         1 QLO      -0.066000
      9 C15        -16.1520     5.7360    25.5360 ca         1 QLO       0.341900
     10 C17        -16.6220     7.7200    24.1370 ca         1 QLO      -0.086000
     11 C20        -19.2470     7.7720    25.1280 ca         1 QLO      -0.098000
     12 C21        -18.3660     6.7540    25.5670 ca         1 QLO      -0.028000
     13 O2         -19.4890     5.4420    29.2010 o          1 QLO      -0.573100
     14 C12        -20.3340     5.5310    28.3180 c          1 QLO       0.597100
     15 C3         -21.8410     5.5540    28.6880 c6         1 QLO      -0.053700
     16 C11        -22.0440     4.6150    29.8730 ca         1 QLO      -0.140300
     17 C9         -21.7600     2.4380    30.8740 ca         1 QLO       0.093000
     18 CL         -21.1670     0.7900    30.7600 cl         1 QLO      -0.208000
     19 O1         -23.2090     6.2870    31.1980 os         1 QLO      -0.342100
     20 C2         -22.8150     5.0650    27.5660 c3         1 QLO      -0.158400
     21 C1         -23.1510     6.0640    26.4770 c          1 QLO       0.593100
     22 O          -22.2970     6.4840    25.6780 o          1 QLO      -0.636100
     23 N          -24.4220     6.4680    26.4130 ns         1 QLO      -0.489900
     24 C          -24.8870     7.4240    25.4210 c3         1 QLO       0.091300
     25 C19        -18.8170     8.7130    24.2260 ca         1 QLO      -0.098000
     26 C18        -17.4980     8.6880    23.7200 ca         1 QLO      -0.110000
     27 C16        -17.0330     6.7380    25.0680 ca         1 QLO      -0.086000
     28 N2         -16.4980     4.8080    26.4000 nb         1 QLO      -0.646000
     29 C14        -17.7710     4.8090    26.8650 ca         1 QLO       0.316900
     30 H1         -20.8000     5.9220    26.3680 hn         1 QLO       0.201000
     31 H2         -21.3030     7.3810    29.7140 hc         1 QLO       0.077200
     32 H3         -22.2670     7.6540    28.2690 hc         1 QLO       0.077200
     33 H4         -23.5880     8.0720    30.3310 h1         1 QLO       0.053200
     34 H5         -24.2670     6.6800    29.4710 h1         1 QLO       0.053200
     35 H6         -23.3660     4.5130    33.0000 ha         1 QLO       0.134000
     36 H7         -22.5160     2.1820    32.8730 ha         1 QLO       0.134000
     37 H8         -21.0770     2.9520    28.9180 ha         1 QLO       0.131000
     38 H9         -15.1310     5.7190    25.1660 h4         1 QLO       0.019100
     39 H10        -15.6050     7.6920    23.7640 ha         1 QLO       0.116000
     40 H11        -20.2590     7.8080    25.5030 ha         1 QLO       0.130000
     41 H12        -23.7360     4.7450    28.0480 hc         1 QLO       0.074700
     42 H13        -22.3880     4.1820    27.0870 hc         1 QLO       0.074700
     43 H14        -25.0850     6.1000    27.0750 hn         1 QLO       0.321500
     44 H15        -25.9450     7.6040    25.5900 h1         1 QLO       0.048700
     45 H16        -24.3420     8.3640    25.5100 h1         1 QLO       0.048700
     46 H17        -24.7440     7.0350    24.4120 h1         1 QLO       0.048700
     47 H18        -19.4970     9.4880    23.8970 ha         1 QLO       0.113000
     48 H19        -17.1840     9.4400    23.0080 ha         1 QLO       0.115000
     49 H20        -18.0280     4.0240    27.5630 h4         1 QLO       0.034100
@<TRIPOS>BOND
     1     1     8 1   
     2     1    14 1   
     3     1    30 1   
     4     2     3 1   
     5     2    15 1   
     6     2    31 1   
     7     2    32 1   
     8     3    19 1   
     9     3    33 1   
    10     3    34 1   
    11     4     5 ar  
    12     4    16 ar  
    13     4    19 1   
    14     5     6 ar  
    15     5    35 1   
    16     6    17 ar  
    17     6    36 1   
    18     7    16 ar  
    19     7    17 ar  
    20     7    37 1   
    21     8    12 ar  
    22     8    29 ar  
    23     9    27 ar  
    24     9    28 ar  
    25     9    38 1   
    26    10    26 ar  
    27    10    27 ar  
    28    10    39 1   
    29    11    12 ar  
    30    11    25 ar  
    31    11    40 1   
    32    12    27 ar  
    33    13    14 2   
    34    14    15 1   
    35    15    16 1   
    36    15    20 1   
    37    17    18 1   
    38    20    21 1   
    39    20    41 1   
    40    20    42 1   
    41    21    22 2   
    42    21    23 1   
    43    23    24 1   
    44    23    43 1   
    45    24    44 1   
    46    24    45 1   
    47    24    46 1   
    48    25    26 ar  
    49    25    47 1   
    50    26    48 1   
    51    28    29 ar  
    52    29    49 1   
@<TRIPOS>SUBSTRUCTURE
     1 QLO         1 TEMP              0 ****  ****    0 ROOT
