@<TRIPOS>MOLECULE
QLO
   49    52     1     0     0
SMALL
No Charge or Current Charge


@<TRIPOS>ATOM
      1 N1         -19.8930     5.8620    27.1850 ns         1 QLO      -0.168000
      2 C4         -22.1320     6.8100    28.5850 c6         1 QLO      -0.114400
      3 C5         -23.1780     7.1980    29.6370 c6         1 QLO       0.163600
      4 C6         -22.3870     5.3580    30.9970 ca         1 QLO       0.146100
      5 C7         -22.3670     4.7780    32.2760 ca         1 QLO      -0.132000
      6 C8         -22.0480     3.4220    32.4370 ca         1 QLO      -0.062000
      7 C10        -21.7670     3.2170    30.0270 ca         1 QLO      -0.051000
      8 C13        -18.6440     5.8470    26.4960 ca         1 QLO      -0.066000
      9 C15        -16.1890     5.7710    25.2150 ca         1 QLO       0.341900
     10 C17        -16.4490     8.0900    24.4870 ca         1 QLO      -0.086000
     11 C20        -18.9480     8.2050    25.7750 ca         1 QLO      -0.098000
     12 C21        -18.1920     7.0100    25.8240 ca         1 QLO      -0.028000
     13 O2         -20.4720     3.6610    27.3420 o          1 QLO      -0.573100
     14 C12        -20.7220     4.8300    27.6140 c          1 QLO       0.597100
     15 C3         -22.0240     5.2470    28.4210 c6         1 QLO      -0.053700
     16 C11        -22.0380     4.5970    29.8440 ca         1 QLO      -0.140300
     17 C9         -21.7630     2.6420    31.3090 ca         1 QLO       0.093000
     18 Cl         -21.4040     0.9300    31.4980 cl         1 QLO      -0.208000
     19 O1         -22.7730     6.6770    30.9110 os         1 QLO      -0.342100
     20 C2         -23.2710     4.6780    27.6420 c3         1 QLO      -0.158400
     21 C1         -23.5530     5.3620    26.2980 c          1 QLO       0.593100
     22 O          -22.7970     5.2700    25.3430 o          1 QLO      -0.636100
     23 N          -24.7250     6.0780    26.2330 ns         1 QLO      -0.489900
     24 C          -25.1790     6.8100    25.0470 c3         1 QLO       0.091300
     25 C19        -18.4530     9.3280    25.0900 ca         1 QLO      -0.098000
     26 C18        -17.2050     9.2720    24.4480 ca         1 QLO      -0.110000
     27 C16        -16.9400     6.9610    25.1720 ca         1 QLO      -0.086000
     28 N2         -16.6050     4.6600    25.8610 nb         1 QLO      -0.646000
     29 C14        -17.8050     4.7040    26.4850 ca         1 QLO       0.316900
     30 H1         -20.2260     6.7870    27.4150 hn         1 QLO       0.201000
     31 H2         -21.1780     7.2270    28.9390 hc         1 QLO       0.077200
     32 H3         -22.3530     7.3120    27.6340 hc         1 QLO       0.077200
     33 H4         -23.2620     8.2910    29.7120 h1         1 QLO       0.053200
     34 H5         -24.1660     6.7950    29.3770 h1         1 QLO       0.053200
     35 H6         -22.6200     5.3810    33.1440 ha         1 QLO       0.134000
     36 H7         -22.0420     2.9720    33.4270 ha         1 QLO       0.134000
     37 H8         -21.5660     2.5660    29.1840 ha         1 QLO       0.131000
     38 H9         -15.2200     5.7050    24.7220 h4         1 QLO       0.019100
     39 H10        -15.4830     8.0520    23.9860 ha         1 QLO       0.116000
     40 H11        -19.9200     8.2800    26.2550 ha         1 QLO       0.130000
     41 H12        -24.1630     4.7620    28.2740 hc         1 QLO       0.074700
     42 H13        -23.1240     3.6110    27.4390 hc         1 QLO       0.074700
     43 H14        -25.3080     6.0900    27.0630 hn         1 QLO       0.321500
     44 H15        -26.1370     7.3000    25.2620 h1         1 QLO       0.048700
     45 H16        -24.4360     7.5720    24.7760 h1         1 QLO       0.048700
     46 H17        -25.3090     6.1130    24.2100 h1         1 QLO       0.048700
     47 H18        -19.0390    10.2440    25.0560 ha         1 QLO       0.113000
     48 H19        -16.8260    10.1430    23.9190 ha         1 QLO       0.115000
     49 H20        -18.0770     3.7930    27.0130 h4         1 QLO       0.034100
@<TRIPOS>BOND
     1     1     8 1   
     2     1    14 1   
     3     1    30 1   
     4     2     3 1   
     5     2    15 1   
     6     2    31 1   
     7     2    32 1   
     8     3    19 1   
     9     3    33 1   
    10     3    34 1   
    11     4     5 ar  
    12     4    16 ar  
    13     4    19 1   
    14     5     6 ar  
    15     5    35 1   
    16     6    17 ar  
    17     6    36 1   
    18     7    16 ar  
    19     7    17 ar  
    20     7    37 1   
    21     8    12 ar  
    22     8    29 ar  
    23     9    27 ar  
    24     9    28 ar  
    25     9    38 1   
    26    10    26 ar  
    27    10    27 ar  
    28    10    39 1   
    29    11    12 ar  
    30    11    25 ar  
    31    11    40 1   
    32    12    27 ar  
    33    13    14 2   
    34    14    15 1   
    35    15    16 1   
    36    15    20 1   
    37    17    18 1   
    38    20    21 1   
    39    20    41 1   
    40    20    42 1   
    41    21    22 2   
    42    21    23 1   
    43    23    24 1   
    44    23    43 1   
    45    24    44 1   
    46    24    45 1   
    47    24    46 1   
    48    25    26 ar  
    49    25    47 1   
    50    26    48 1   
    51    28    29 ar  
    52    29    49 1   
@<TRIPOS>SUBSTRUCTURE
     1 QLO         1 TEMP              0 ****  ****    0 ROOT
