@<TRIPOS>MOLECULE
QLQ
  105   112     1     0     0
SMALL
No Charge or Current Charge


@<TRIPOS>ATOM
      1 C1          20.5710    23.9450    -5.6720 ca         1 QLQ      -0.208000
      2 C10         19.1640    28.1930    -6.9920 ca         1 QLQ       0.364400
      3 C11          8.9080    22.6130    -1.1560 ca         1 QLQ      -0.144000
      4 C12         18.8450    23.4170    -7.2710 ca         1 QLQ      -0.206300
      5 C13         10.6550    21.9690    -2.6870 ca         1 QLQ      -0.105300
      6 C14         10.5700    21.0470    -0.4000 ca         1 QLQ      -0.042300
      7 C15          9.4120    21.8120    -0.1630 ca         1 QLQ      -0.072000
      8 C16         18.4060    28.0040    -4.7100 ca         1 QLQ       0.358000
      9 C17         19.5130    24.2640    -8.1510 ca         1 QLQ       0.494900
     10 C18         18.0110    23.7530    -9.9990 c          1 QLQ       0.719100
     11 C19         15.8290    24.4470    -1.7190 c          1 QLQ       0.597100
     12 C2          19.3820    23.2600    -5.9770 ca         1 QLQ      -0.023000
     13 C20         13.1800    23.6810    -3.3910 c          1 QLQ       0.582100
     14 C21         14.1350    21.3130    -5.9540 c          1 QLQ       0.646100
     15 C22         17.3360    21.3330    -7.2430 c6         1 QLQ      -0.116900
     16 C23         16.3380    23.6720    -7.2710 c6         1 QLQ      -0.116900
     17 C24         11.4450    24.9460    -0.0280 c6         1 QLQ      -0.112400
     18 C25         12.6420    25.7890     2.0450 c6         1 QLQ      -0.112400
     19 C26         15.9450    20.7710    -7.6290 c6         1 QLQ       0.095000
     20 C27         14.9780    23.0400    -7.6540 c6         1 QLQ       0.095000
     21 C28         18.4320    25.8430    -3.4120 c6         1 QLQ       0.182300
     22 C29         16.5900    27.5310    -3.0500 c6         1 QLQ       0.182300
     23 C3          18.5380    29.3900    -4.6090 ca         1 QLQ      -0.239000
     24 C30         18.1860    25.3220    -1.9700 c6         1 QLQ       0.085500
     25 C31         16.3920    26.9440    -1.6230 c6         1 QLQ       0.085500
     26 C32         10.1630    25.4250     0.7080 c6         1 QLQ       0.151800
     27 C33         11.4100    26.6500     2.4500 c6         1 QLQ       0.151800
     28 C34         12.7520    25.6050     0.5080 c6         1 QLQ      -0.061700
     29 C35         17.5290    22.7940    -7.7480 c6         1 QLQ       0.271300
     30 C36         11.1500    20.1500     0.6850 c3         1 QLQ      -0.040800
     31 C37         11.3070    22.0390    -4.0670 c3         1 QLQ      -0.033100
     32 C38         14.0430    24.8240     0.1120 c3         1 QLQ      -0.084400
     33 C39         14.3160    24.7050    -1.4100 c3         1 QLQ       0.045700
     34 C4          18.7240    27.3970    -5.9300 ca         1 QLQ      -0.239000
     35 C40         12.8290    22.3140    -4.0360 c3         1 QLQ       0.050700
     36 C5           9.4940    22.7270    -2.4220 ca         1 QLQ      -0.046000
     37 C6          11.1800    21.1260    -1.6740 ca         1 QLQ      -0.106000
     38 C7          21.1700    24.7630    -6.6460 ca         1 QLQ       0.381900
     39 C8           7.7480    23.2320    -0.6190 cc         1 QLQ      -0.201100
     40 C9          18.9860    30.1150    -5.7180 ca         1 QLQ       0.364400
     41 N1          20.6470    24.9310    -7.8810 nb         1 QLQ      -0.711000
     42 N10         13.3880    22.3210    -5.4030 ns         1 QLQ      -0.500900
     43 N11         10.3730    26.7240     1.3860 n7         1 QLQ      -0.845400
     44 N2           7.6330    22.7570     0.6850 na         1 QLQ       0.013500
     45 N3           8.6590    21.8620     1.0160 nc         1 QLQ      -0.279400
     46 N4          19.2970    29.5340    -6.8970 nb         1 QLQ      -0.691000
     47 N5          19.0210    24.4610    -9.4190 ns         1 QLQ      -0.347900
     48 N6          17.9560    27.2520    -3.6050 nh         1 QLQ      -0.799400
     49 N7          16.7610    25.5050    -1.5920 n          1 QLQ      -0.399800
     50 N8          14.8880    21.6630    -7.0940 n          1 QLQ      -0.397800
     51 N9          13.5100    23.6460    -2.0540 ns         1 QLQ      -0.468900
     52 O1          17.7190    23.8630   -11.1780 o          1 QLQ      -0.518000
     53 O3          13.2600    24.7160    -4.0440 o          1 QLQ      -0.634100
     54 O4          14.1790    20.2000    -5.4550 o          1 QLQ      -0.637100
     55 O5          17.5250    22.7480    -9.1960 os         1 QLQ      -0.445100
     56 H1          21.0280    23.8520    -4.6910 ha         1 QLQ       0.128000
     57 H3          18.9000    22.6450    -5.2200 ha         1 QLQ       0.137000
     58 H4          18.1270    20.6890    -7.6510 hc         1 QLQ       0.071450
     59 H5          17.4270    21.2850    -6.1510 hc         1 QLQ       0.071450
     60 H6          16.4130    24.6810    -7.6980 hc         1 QLQ       0.071450
     61 H7          16.3840    23.7960    -6.1800 hc         1 QLQ       0.071450
     62 H8          11.3430    25.1600    -1.1010 hc         1 QLQ       0.047950
     63 H9          11.5080    23.8540     0.0600 hc         1 QLQ       0.047950
     64 H10         12.5630    24.8020     2.5210 hc         1 QLQ       0.047950
     65 H11         13.5550    26.2490     2.4460 hc         1 QLQ       0.047950
     66 H12         15.8340    19.7490    -7.2380 h1         1 QLQ       0.069950
     67 H13         15.8540    20.7110    -8.7230 h1         1 QLQ       0.069950
     68 H14         14.1550    23.6830    -7.3180 h1         1 QLQ       0.069950
     69 H15         14.8970    22.9830    -8.7500 h1         1 QLQ       0.069950
     70 H16         17.9140    25.1750    -4.1150 h1         1 QLQ       0.055700
     71 H17         19.5090    25.7750    -3.6250 h1         1 QLQ       0.055700
     72 H18         16.4040    28.6140    -3.0060 h1         1 QLQ       0.055700
     73 H19         15.8280    27.0980    -3.7150 h1         1 QLQ       0.055700
     74 H20         18.3090    29.9040    -3.6820 ha         1 QLQ       0.118000
     75 H21         18.4860    24.2680    -1.8980 h1         1 QLQ       0.063700
     76 H22         18.8190    25.8860    -1.2710 h1         1 QLQ       0.063700
     77 H23         17.0460    27.4890    -0.9280 h1         1 QLQ       0.063700
     78 H24         15.3650    27.1200    -1.2810 h1         1 QLQ       0.063700
     79 H25          9.3340    25.5050    -0.0110 h1         1 QLQ       0.052950
     80 H26          9.8720    24.6720     1.4570 h1         1 QLQ       0.052950
     81 H27         10.9700    26.2270     3.3660 h1         1 QLQ       0.052950
     82 H28         11.7390    27.6710     2.6950 h1         1 QLQ       0.052950
     83 H29         12.8510    26.6030     0.0550 hc         1 QLQ       0.038700
     84 H30         11.4240    20.7350     1.5710 hc         1 QLQ       0.047367
     85 H31         10.4230    19.3910     0.9950 hc         1 QLQ       0.047367
     86 H32         12.0510    19.6270     0.3440 hc         1 QLQ       0.047367
     87 H33         10.8250    22.8120    -4.6790 hc         1 QLQ       0.063200
     88 H34         11.1360    21.0900    -4.5900 hc         1 QLQ       0.063200
     89 H35         14.0350    23.8200     0.5550 hc         1 QLQ       0.060200
     90 H36         14.9000    25.3370     0.5680 hc         1 QLQ       0.060200
     91 H37         14.0470    25.6580    -1.8800 h1         1 QLQ       0.071700
     92 H38         18.6210    26.3280    -6.0710 ha         1 QLQ       0.118000
     93 H39         13.3340    21.5340    -3.4530 h1         1 QLQ       0.088700
     94 H40          9.0560    23.3750    -3.1770 ha         1 QLQ       0.124000
     95 H41         12.0580    20.5180    -1.8780 ha         1 QLQ       0.112000
     96 H42         22.0900    25.3050    -6.4280 h4         1 QLQ       0.026100
     97 H43          7.0290    23.9320    -1.0310 h4         1 QLQ       0.228000
     98 H44         19.1020    31.1970    -5.6650 h4         1 QLQ       0.013600
     99 H45         13.4200    23.2130    -5.8780 hn         1 QLQ       0.315500
    100 H46         10.7030    27.3840     0.6730 hn         1 QLQ       0.398000
    101 H48          6.9090    22.9950     1.3590 hn         1 QLQ       0.373000
    102 H49         19.4940    25.1490    -9.9850 hn         1 QLQ       0.185000
    103 H50         13.4290    22.7530    -1.5840 hn         1 QLQ       0.338500
    104 O2          16.2200    23.3270    -2.0380 o          1 QLQ      -0.592100
    105 H2          19.4140    27.7480    -7.9540 h4         1 QLQ       0.013600
@<TRIPOS>BOND
     1     1    12 ar  
     2     1    38 ar  
     3     1    56 1   
     4     2    34 ar  
     5     2    46 ar  
     6     2   105 1   
     7     3     7 ar  
     8     3    36 ar  
     9     3    39 2   
    10     4     9 ar  
    11     4    12 ar  
    12     4    29 1   
    13     5    31 1   
    14     5    36 ar  
    15     5    37 ar  
    16     6     7 ar  
    17     6    30 1   
    18     6    37 ar  
    19     7    45 2   
    20     8    23 ar  
    21     8    34 ar  
    22     8    48 1   
    23     9    41 ar  
    24     9    47 1   
    25    10    47 1   
    26    10    52 2   
    27    10    55 1   
    28    11    33 1   
    29    11    49 1   
    30    11   104 2   
    31    12    57 1   
    32    13    35 1   
    33    13    51 1   
    34    13    53 2   
    35    14    42 1   
    36    14    50 1   
    37    14    54 2   
    38    15    19 1   
    39    15    29 1   
    40    15    58 1   
    41    15    59 1   
    42    16    20 1   
    43    16    29 1   
    44    16    60 1   
    45    16    61 1   
    46    17    26 1   
    47    17    28 1   
    48    17    62 1   
    49    17    63 1   
    50    18    27 1   
    51    18    28 1   
    52    18    64 1   
    53    18    65 1   
    54    19    50 1   
    55    19    66 1   
    56    19    67 1   
    57    20    50 1   
    58    20    68 1   
    59    20    69 1   
    60    21    24 1   
    61    21    48 1   
    62    21    70 1   
    63    21    71 1   
    64    22    25 1   
    65    22    48 1   
    66    22    72 1   
    67    22    73 1   
    68    23    40 ar  
    69    23    74 1   
    70    24    49 1   
    71    24    75 1   
    72    24    76 1   
    73    25    49 1   
    74    25    77 1   
    75    25    78 1   
    76    26    43 1   
    77    26    79 1   
    78    26    80 1   
    79    27    43 1   
    80    27    81 1   
    81    27    82 1   
    82    28    32 1   
    83    28    83 1   
    84    29    55 1   
    85    30    84 1   
    86    30    85 1   
    87    30    86 1   
    88    31    35 1   
    89    31    87 1   
    90    31    88 1   
    91    32    33 1   
    92    32    89 1   
    93    32    90 1   
    94    33    51 1   
    95    33    91 1   
    96    34    92 1   
    97    35    42 1   
    98    35    93 1   
    99    36    94 1   
   100    37    95 1   
   101    38    41 ar  
   102    38    96 1   
   103    39    44 1   
   104    39    97 1   
   105    40    46 ar  
   106    40    98 1   
   107    42    99 1   
   108    43   100 1   
   109    44    45 1   
   110    44   101 1   
   111    47   102 1   
   112    51   103 1   
@<TRIPOS>SUBSTRUCTURE
     1 QLQ         1 TEMP              0 ****  ****    0 ROOT
