@<TRIPOS>MOLECULE
QLQ
  105   112     1     0     0
SMALL
abcg2


@<TRIPOS>ATOM
      1 C1          20.1300    24.8300    -6.0090 ca         1 QLQ      -0.208000
      2 C10         17.7330    29.8550    -6.8080 ca         1 QLQ       0.364400
      3 C11          9.7010    25.0260    -1.9950 ca         1 QLQ      -0.144000
      4 C12         18.8220    23.1430    -7.0870 ca         1 QLQ      -0.206300
      5 C13         10.6360    23.3110    -3.3630 ca         1 QLQ      -0.105300
      6 C14          9.2750    22.6610    -1.4130 ca         1 QLQ      -0.042300
      7 C15          9.0950    24.0470    -1.1630 ca         1 QLQ      -0.072000
      8 C16         16.9370    28.8800    -4.7490 ca         1 QLQ       0.358000
      9 C17         19.3500    23.6200    -8.2870 ca         1 QLQ       0.494900
     10 C18         18.4710    21.7220    -9.4950 c          1 QLQ       0.719100
     11 C19         16.0780    24.4430    -2.1500 c          1 QLQ       0.597100
     12 C2          19.2360    23.7680    -5.9280 ca         1 QLQ      -0.023000
     13 C20         13.6110    23.4590    -3.4580 c          1 QLQ       0.582100
     14 C21         14.6420    21.0430    -5.1100 c          1 QLQ       0.646100
     15 C22         17.7850    21.1060    -5.9840 c6         1 QLQ      -0.116900
     16 C23         16.3990    22.6380    -7.4090 c6         1 QLQ      -0.116900
     17 C24         12.4810    23.4730     0.6590 c6         1 QLQ      -0.112400
     18 C25         14.2340    23.8750     2.3890 c6         1 QLQ      -0.112400
     19 C26         16.6510    20.0880    -6.0670 c6         1 QLQ       0.095000
     20 C27         15.3370    21.5460    -7.4520 c6         1 QLQ       0.095000
     21 C28         17.6780    26.6730    -4.0560 c6         1 QLQ       0.182300
     22 C29         15.7510    27.7250    -2.9560 c6         1 QLQ       0.182300
     23 C3          16.1730    30.0550    -4.6240 ca         1 QLQ      -0.239000
     24 C30         17.9260    25.8880    -2.7800 c6         1 QLQ       0.085500
     25 C31         16.0670    26.9100    -1.7140 c6         1 QLQ       0.085500
     26 C32         11.3770    23.9720     1.6090 c6         1 QLQ       0.151800
     27 C33         13.0310    23.6670     3.3240 c6         1 QLQ       0.151800
     28 C34         13.7920    24.1950     0.9500 c6         1 QLQ      -0.061700
     29 C35         17.7980    22.0470    -7.1850 c6         1 QLQ       0.271300
     30 C36          8.6550    21.6370    -0.5180 c3         1 QLQ      -0.040800
     31 C37         11.4480    22.8290    -4.5330 c3         1 QLQ      -0.033100
     32 C38         14.9400    23.8800    -0.0060 c3         1 QLQ      -0.084400
     33 C39         14.7130    24.2820    -1.4700 c3         1 QLQ       0.045700
     34 C4          17.7290    28.8040    -5.9090 ca         1 QLQ      -0.239000
     35 C40         12.8300    22.3200    -4.1110 c3         1 QLQ       0.050700
     36 C5          10.4790    24.6450    -3.1110 ca         1 QLQ      -0.046000
     37 C6          10.0390    22.3390    -2.5020 ca         1 QLQ      -0.106000
     38 C7          20.5600    25.2330    -7.2600 ca         1 QLQ       0.381900
     39 C8           9.3090    26.2360    -1.4310 cc         1 QLQ      -0.201100
     40 C9          16.2620    31.0380    -5.5880 ca         1 QLQ       0.364400
     41 N1          20.1850    24.6350    -8.3880 nb         1 QLQ      -0.711000
     42 N10         13.5420    21.8340    -5.2680 ns         1 QLQ      -0.500900
     43 N11         11.8540    24.4130     2.9160 n7         1 QLQ      -0.845400
     44 N2           8.5480    25.9110    -0.3820 na         1 QLQ       0.013500
     45 N3           8.3890    24.6120    -0.1800 nc         1 QLQ      -0.279400
     46 N4          17.0240    30.9700    -6.6770 nb         1 QLQ      -0.691000
     47 N5          18.9740    22.9890    -9.4610 ns         1 QLQ      -0.347900
     48 N6          16.9270    27.8910    -3.7990 nh         1 QLQ      -0.799400
     49 N7          16.6800    25.6510    -2.0820 n          1 QLQ      -0.399800
     50 N8          15.3710    20.7540    -6.2350 n          1 QLQ      -0.397800
     51 N9          13.9490    23.2850    -2.1760 ns         1 QLQ      -0.468900
     52 O1          18.3620    21.0730   -10.5040 o          1 QLQ      -0.518000
     53 O3          13.8920    24.4710    -4.0870 o          1 QLQ      -0.634100
     54 O4          14.9200    20.5650    -4.0160 o          1 QLQ      -0.637100
     55 O5          18.1320    21.2050    -8.3140 os         1 QLQ      -0.445100
     56 H1          20.4780    25.3370    -5.1200 ha         1 QLQ       0.128000
     57 H3          18.8620    23.4510    -4.9630 ha         1 QLQ       0.137000
     58 H4          18.7500    20.6000    -5.9010 hc         1 QLQ       0.071450
     59 H5          17.6510    21.6960    -5.0750 hc         1 QLQ       0.071450
     60 H6          16.3730    23.2300    -8.3280 hc         1 QLQ       0.071450
     61 H7          16.1840    23.3280    -6.5870 hc         1 QLQ       0.071450
     62 H8          12.1490    23.6240    -0.3700 hc         1 QLQ       0.047950
     63 H9          12.6340    22.3940     0.7790 hc         1 QLQ       0.047950
     64 H10         14.8540    22.9730     2.3930 hc         1 QLQ       0.047950
     65 H11         14.8670    24.6860     2.7590 hc         1 QLQ       0.047950
     66 H12         16.6350    19.4780    -5.1680 h1         1 QLQ       0.069950
     67 H13         16.7980    19.4100    -6.9100 h1         1 QLQ       0.069950
     68 H14         14.3550    21.9750    -7.6390 h1         1 QLQ       0.069950
     69 H15         15.5130    20.8730    -8.2940 h1         1 QLQ       0.069950
     70 H16         17.1680    26.0350    -4.7910 h1         1 QLQ       0.055700
     71 H17         18.6530    26.9300    -4.4670 h1         1 QLQ       0.055700
     72 H18         15.3850    28.6930    -2.6240 h1         1 QLQ       0.055700
     73 H19         14.9410    27.2380    -3.5140 h1         1 QLQ       0.055700
     74 H20         15.5200    30.2340    -3.7830 ha         1 QLQ       0.118000
     75 H21         18.4140    24.9480    -3.0200 h1         1 QLQ       0.063700
     76 H22         18.5920    26.4510    -2.1210 h1         1 QLQ       0.063700
     77 H23         16.7690    27.4570    -1.0800 h1         1 QLQ       0.063700
     78 H24         15.1610    26.7770    -1.1310 h1         1 QLQ       0.063700
     79 H25         10.8500    24.8090     1.1500 h1         1 QLQ       0.052950
     80 H26         10.6340    23.1790     1.7430 h1         1 QLQ       0.052950
     81 H27         12.7590    22.6080     3.3500 h1         1 QLQ       0.052950
     82 H28         13.2950    23.9360     4.3480 h1         1 QLQ       0.052950
     83 H29         13.6020    25.2740     0.8760 hc         1 QLQ       0.038700
     84 H30          9.0250    21.7360     0.5050 hc         1 QLQ       0.047367
     85 H31          7.5710    21.7530    -0.4730 hc         1 QLQ       0.047367
     86 H32          8.8740    20.6270    -0.8600 hc         1 QLQ       0.047367
     87 H33         11.5710    23.6330    -5.2630 hc         1 QLQ       0.063200
     88 H34         10.9320    22.0100    -5.0400 hc         1 QLQ       0.063200
     89 H35         15.1920    22.8150     0.0400 hc         1 QLQ       0.060200
     90 H36         15.8240    24.4100     0.3590 hc         1 QLQ       0.060200
     91 H37         14.1430    25.2120    -1.4950 h1         1 QLQ       0.071700
     92 H38         18.3350    27.9420    -6.1410 ha         1 QLQ       0.118000
     93 H39         12.6980    21.4970    -3.4070 h1         1 QLQ       0.088700
     94 H40         10.9290    25.3910    -3.7560 ha         1 QLQ       0.124000
     95 H41         10.1950    21.2910    -2.7360 ha         1 QLQ       0.112000
     96 H42         21.2410    26.0690    -7.3650 h4         1 QLQ       0.026100
     97 H43          9.5110    27.2610    -1.6960 h4         1 QLQ       0.228000
     98 H44         15.6730    31.9410    -5.4660 h4         1 QLQ       0.013600
     99 H45         13.4200    22.3760    -6.1060 hn         1 QLQ       0.315500
    100 H46         12.0930    25.3950     2.8680 hn         1 QLQ       0.398000
    101 H48          8.1030    26.5630     0.2480 hn         1 QLQ       0.373000
    102 H49         19.3190    23.3720   -10.3300 hn         1 QLQ       0.185000
    103 H50         13.8030    22.3850    -1.7480 hn         1 QLQ       0.338500
    104 O2          16.6190    23.4720    -2.6540 o          1 QLQ      -0.592100
    105 H2          18.3510    29.7760    -7.6960 h4         1 QLQ       0.013600
@<TRIPOS>BOND
     1     1    12 ar  
     2     1    38 ar  
     3     1    56 1   
     4     2    34 ar  
     5     2    46 ar  
     6     2   105 1   
     7     3     7 ar  
     8     3    36 ar  
     9     3    39 2   
    10     4     9 ar  
    11     4    12 ar  
    12     4    29 1   
    13     5    31 1   
    14     5    36 ar  
    15     5    37 ar  
    16     6     7 ar  
    17     6    30 1   
    18     6    37 ar  
    19     7    45 2   
    20     8    23 ar  
    21     8    34 ar  
    22     8    48 1   
    23     9    41 ar  
    24     9    47 1   
    25    10    47 1   
    26    10    52 2   
    27    10    55 1   
    28    11    33 1   
    29    11    49 1   
    30    11   104 2   
    31    12    57 1   
    32    13    35 1   
    33    13    51 1   
    34    13    53 2   
    35    14    42 1   
    36    14    50 1   
    37    14    54 2   
    38    15    19 1   
    39    15    29 1   
    40    15    58 1   
    41    15    59 1   
    42    16    20 1   
    43    16    29 1   
    44    16    60 1   
    45    16    61 1   
    46    17    26 1   
    47    17    28 1   
    48    17    62 1   
    49    17    63 1   
    50    18    27 1   
    51    18    28 1   
    52    18    64 1   
    53    18    65 1   
    54    19    50 1   
    55    19    66 1   
    56    19    67 1   
    57    20    50 1   
    58    20    68 1   
    59    20    69 1   
    60    21    24 1   
    61    21    48 1   
    62    21    70 1   
    63    21    71 1   
    64    22    25 1   
    65    22    48 1   
    66    22    72 1   
    67    22    73 1   
    68    23    40 ar  
    69    23    74 1   
    70    24    49 1   
    71    24    75 1   
    72    24    76 1   
    73    25    49 1   
    74    25    77 1   
    75    25    78 1   
    76    26    43 1   
    77    26    79 1   
    78    26    80 1   
    79    27    43 1   
    80    27    81 1   
    81    27    82 1   
    82    28    32 1   
    83    28    83 1   
    84    29    55 1   
    85    30    84 1   
    86    30    85 1   
    87    30    86 1   
    88    31    35 1   
    89    31    87 1   
    90    31    88 1   
    91    32    33 1   
    92    32    89 1   
    93    32    90 1   
    94    33    51 1   
    95    33    91 1   
    96    34    92 1   
    97    35    42 1   
    98    35    93 1   
    99    36    94 1   
   100    37    95 1   
   101    38    41 ar  
   102    38    96 1   
   103    39    44 1   
   104    39    97 1   
   105    40    46 ar  
   106    40    98 1   
   107    42    99 1   
   108    43   100 1   
   109    44    45 1   
   110    44   101 1   
   111    47   102 1   
   112    51   103 1   
@<TRIPOS>SUBSTRUCTURE
     1 QLQ         1 TEMP              0 ****  ****    0 ROOT
