@<TRIPOS>MOLECULE
QLR
   50    51     1     0     0
SMALL
No Charge or Current Charge


@<TRIPOS>ATOM
      1 N1           4.5090    -1.8390     0.1150 nb         1 QLR      -0.293000
      2 C2           5.5160    -1.1570    -0.4420 ca         1 QLR       0.429900
      3 N3           5.5110     0.1040    -0.8790 nb         1 QLR      -0.339000
      4 C4           4.3570     0.7600    -0.7340 ca         1 QLR       0.439900
      5 C5           3.2120     0.1670    -0.1650 ca         1 QLR      -0.221000
      6 C6           3.3430    -1.1760     0.2580 ca         1 QLR       0.222300
      7 CAB         -4.4580     1.4320    -2.9210 c3         1 QLR       0.146400
      8 CAC         -1.6280    -2.4390     2.7360 c3         1 QLR       0.146400
      9 CAD         -5.5650    -2.0600    -1.1550 c3         1 QLR       0.148900
     10 CAE          2.1970    -1.9560     0.8930 c3         1 QLR      -0.154400
     11 NAF          6.6800    -1.8260    -0.5870 nv         1 QLR      -1.063900
     12 NAG          4.3790     2.0410    -1.1860 nv         1 QLR      -1.066900
     13 CAH          1.9670     0.8780    -0.0180 cg         1 QLR      -0.088000
     14 CAI          0.9040     1.4460     0.1190 c1         1 QLR      -0.153100
     15 CAJ         -2.4810     1.1320    -0.8430 ca         1 QLR      -0.221000
     16 CAK         -1.5560    -0.1080     1.0210 ca         1 QLR      -0.221000
     17 CAL         -0.5180     2.8010     1.6850 c3         1 QLR      -0.067400
     18 CAU         -1.5100     1.0060     0.1650 ca         1 QLR      -0.005300
     19 CAW         -3.4990     0.1640    -1.0100 ca         1 QLR       0.157600
     20 CAX         -2.5540    -1.0910     0.8730 ca         1 QLR       0.157600
     21 CAY         -3.5380    -0.9690    -0.1390 ca         1 QLR       0.024100
     22 CAZ         -0.4150     2.0690     0.3200 c3         1 QLR       0.074700
     23 HAA          0.2480     4.5190     2.7920 hc         1 QLR       0.034367
     24 HAAA         1.4690     3.7250     1.7790 hc         1 QLR       0.034367
     25 HAAB         0.2230     4.7540     1.0320 hc         1 QLR       0.034367
     26 HAB         -5.2960     1.3370    -3.6230 h1         1 QLR       0.041200
     27 HABA        -4.5780     2.3780    -2.3770 h1         1 QLR       0.041200
     28 HABB        -3.5300     1.4720    -3.5050 h1         1 QLR       0.041200
     29 HAC         -1.8540    -3.3740     3.2620 h1         1 QLR       0.041200
     30 HACA        -0.6200    -2.5240     2.3100 h1         1 QLR       0.041200
     31 HACB        -1.6330    -1.6260     3.4730 h1         1 QLR       0.041200
     32 HAD         -5.1820    -2.1020    -2.1820 h1         1 QLR       0.033033
     33 HADA        -6.1600    -2.9660    -0.9830 h1         1 QLR       0.033033
     34 HADB        -6.2350    -1.1970    -1.0520 h1         1 QLR       0.033033
     35 HAE          1.8670    -1.4770     1.8220 hc         1 QLR       0.056700
     36 HAEA         1.3360    -2.0070     0.2160 hc         1 QLR       0.056700
     37 HAEB         2.4870    -2.9850     1.1370 hc         1 QLR       0.056700
     38 HNAF         6.6640    -2.8380    -0.4940 hn         1 QLR       0.498000
     39 HNAA         7.3850    -1.4360    -1.2070 hn         1 QLR       0.498000
     40 HNAG         5.1410     2.3180    -1.7990 hn         1 QLR       0.495000
     41 HNAB         3.4900     2.5180    -1.3110 hn         1 QLR       0.495000
     42 HAJ         -2.4290     1.9990    -1.4930 ha         1 QLR       0.124000
     43 HAK         -0.7980    -0.1970     1.7930 ha         1 QLR       0.124000
     44 HAL         -0.3140     2.0980     2.5020 hc         1 QLR       0.049200
     45 HALA        -1.5530     3.1410     1.8200 hc         1 QLR       0.049200
     46 HAZ         -0.5340     2.8260    -0.4660 hc         1 QLR       0.063700
     47 OAO         -4.4440     0.3170    -2.0120 os         1 QLR      -0.324100
     48 CAA          0.4150     4.0240     1.8280 c3         1 QLR      -0.089100
     49 OAP         -2.6010    -2.2000     1.7040 os         1 QLR      -0.324100
     50 OAQ         -4.4870    -1.9920    -0.2050 os         1 QLR      -0.328100
@<TRIPOS>BOND
     1     1     2 ar  
     2     1     6 ar  
     3     2     3 ar  
     4     2    11 1   
     5     3     4 ar  
     6     4     5 ar  
     7     4    12 1   
     8     5     6 ar  
     9     5    13 1   
    10     6    10 1   
    11     7    26 1   
    12     7    27 1   
    13     7    28 1   
    14     7    47 1   
    15     8    29 1   
    16     8    30 1   
    17     8    31 1   
    18     8    49 1   
    19     9    32 1   
    20     9    33 1   
    21     9    34 1   
    22     9    50 1   
    23    10    35 1   
    24    10    36 1   
    25    10    37 1   
    26    11    38 1   
    27    11    39 1   
    28    12    40 1   
    29    12    41 1   
    30    13    14 3   
    31    14    22 1   
    32    15    18 ar  
    33    15    19 ar  
    34    15    42 1   
    35    16    18 ar  
    36    16    20 ar  
    37    16    43 1   
    38    17    22 1   
    39    17    44 1   
    40    17    45 1   
    41    17    48 1   
    42    18    22 1   
    43    19    21 ar  
    44    19    47 1   
    45    20    21 ar  
    46    20    49 1   
    47    21    50 1   
    48    22    46 1   
    49    23    48 1   
    50    24    48 1   
    51    25    48 1   
@<TRIPOS>SUBSTRUCTURE
     1 QLR         1 TEMP              0 ****  ****    0 ROOT
