@<TRIPOS>MOLECULE
QLR
   50    51     1     0     0
SMALL
abcg2


@<TRIPOS>ATOM
      1 N1           4.4830    -1.9660     0.0350 nb         1 QLR      -0.293000
      2 C2           5.5650    -1.1840    -0.0590 ca         1 QLR       0.429900
      3 N3           5.5720     0.1420    -0.1840 nb         1 QLR      -0.339000
      4 C4           4.3940     0.7530    -0.2050 ca         1 QLR       0.439900
      5 C5           3.1810     0.0250    -0.1000 ca         1 QLR      -0.221000
      6 C6           3.3040    -1.3590     0.0170 ca         1 QLR       0.222300
      7 CAB         -5.0930     1.8940    -2.1580 c3         1 QLR       0.146400
      8 CAC         -1.5790    -2.4650     2.2880 c3         1 QLR       0.146400
      9 CAD         -4.9290    -2.4880    -0.8360 c3         1 QLR       0.148900
     10 CAE          2.0890    -2.2200     0.1510 c3         1 QLR      -0.154400
     11 NAF          6.7610    -1.7960    -0.0000 nv         1 QLR      -1.063900
     12 NAG          4.3850     2.0910    -0.3080 nv         1 QLR      -1.066900
     13 CAH          1.9310     0.6900    -0.1020 cg         1 QLR      -0.088000
     14 CAI          0.8770     1.2790    -0.1030 c1         1 QLR      -0.153100
     15 CAJ         -2.7140     1.3380    -0.7710 ca         1 QLR      -0.221000
     16 CAK         -1.5270    -0.1360     0.7240 ca         1 QLR      -0.221000
     17 CAL         -0.4780     2.9400     1.1390 c3         1 QLR      -0.067400
     18 CAU         -1.5710     1.0160    -0.0510 ca         1 QLR      -0.005300
     19 CAW         -3.8270     0.4990    -0.7200 ca         1 QLR       0.157600
     20 CAX         -2.6370    -0.9760     0.7790 ca         1 QLR       0.157600
     21 CAY         -3.7940    -0.6560     0.0650 ca         1 QLR       0.024100
     22 CAZ         -0.4020     1.9810    -0.0670 c3         1 QLR       0.074700
     23 HAA          0.5130     4.6610     1.9910 hc         1 QLR       0.034367
     24 HAAA         1.6090     3.5360     1.1990 hc         1 QLR       0.034367
     25 HAAB         0.5850     4.5990     0.2320 hc         1 QLR       0.034367
     26 HAB         -6.0860     1.8720    -2.6010 h1         1 QLR       0.041200
     27 HABA        -5.0000     2.7950    -1.5470 h1         1 QLR       0.041200
     28 HABB        -4.3530     1.9350    -2.9610 h1         1 QLR       0.041200
     29 HAC         -1.8400    -3.3920     2.7930 h1         1 QLR       0.041200
     30 HACA        -0.6850    -2.6380     1.6830 h1         1 QLR       0.041200
     31 HACB        -1.3550    -1.7040     3.0390 h1         1 QLR       0.041200
     32 HAD         -4.0790    -3.1680    -0.7450 h1         1 QLR       0.033033
     33 HADA        -5.8460    -3.0530    -0.6730 h1         1 QLR       0.033033
     34 HADB        -4.9470    -2.0830    -1.8510 h1         1 QLR       0.033033
     35 HAE          1.7080    -2.1690     1.1740 hc         1 QLR       0.056700
     36 HAEA         1.2840    -1.8880    -0.5040 hc         1 QLR       0.056700
     37 HAEB         2.3270    -3.2580    -0.0680 hc         1 QLR       0.056700
     38 HNAF         6.8030    -2.7980    -0.0640 hn         1 QLR       0.498000
     39 HNAA         7.5920    -1.2780    -0.2230 hn         1 QLR       0.498000
     40 HNAG         5.2440     2.5680    -0.5250 hn         1 QLR       0.495000
     41 HNAB         3.5280     2.5770    -0.5060 hn         1 QLR       0.495000
     42 HAJ         -2.7200     2.2380    -1.3720 ha         1 QLR       0.124000
     43 HAK         -0.6230    -0.3720     1.2710 ha         1 QLR       0.124000
     44 HAL         -0.4420     2.3520     2.0590 hc         1 QLR       0.049200
     45 HALA        -1.4570     3.4250     1.1140 hc         1 QLR       0.049200
     46 HAZ         -0.4810     2.5910    -0.9750 hc         1 QLR       0.063700
     47 OAO         -4.9740     0.7160    -1.3850 os         1 QLR      -0.324100
     48 CAA          0.6190     3.9910     1.1380 c3         1 QLR      -0.089100
     49 OAP         -2.6950    -2.1120     1.4960 os         1 QLR      -0.324100
     50 OAQ         -4.8890    -1.4590     0.1430 os         1 QLR      -0.328100
@<TRIPOS>BOND
     1     1     2 ar  
     2     1     6 ar  
     3     2     3 ar  
     4     2    11 1   
     5     3     4 ar  
     6     4     5 ar  
     7     4    12 1   
     8     5     6 ar  
     9     5    13 1   
    10     6    10 1   
    11     7    26 1   
    12     7    27 1   
    13     7    28 1   
    14     7    47 1   
    15     8    29 1   
    16     8    30 1   
    17     8    31 1   
    18     8    49 1   
    19     9    32 1   
    20     9    33 1   
    21     9    34 1   
    22     9    50 1   
    23    10    35 1   
    24    10    36 1   
    25    10    37 1   
    26    11    38 1   
    27    11    39 1   
    28    12    40 1   
    29    12    41 1   
    30    13    14 3   
    31    14    22 1   
    32    15    18 ar  
    33    15    19 ar  
    34    15    42 1   
    35    16    18 ar  
    36    16    20 ar  
    37    16    43 1   
    38    17    22 1   
    39    17    44 1   
    40    17    45 1   
    41    17    48 1   
    42    18    22 1   
    43    19    21 ar  
    44    19    47 1   
    45    20    21 ar  
    46    20    49 1   
    47    21    50 1   
    48    22    46 1   
    49    23    48 1   
    50    24    48 1   
    51    25    48 1   
@<TRIPOS>SUBSTRUCTURE
     1 QLR         1 TEMP              0 ****  ****    0 ROOT
