@<TRIPOS>MOLECULE
QLS
   71    75     1     0     0
SMALL
bcc


@<TRIPOS>ATOM
      1 C13          5.3440     0.5300     0.0770 ce         1 QLS      -0.047200
      2 C18         -0.2340     0.1860    -2.2160 c3         1 QLS      -0.098400
      3 C17          0.6430     0.8910    -1.1630 c3         1 QLS       0.099400
      4 C15          2.9840     0.8740    -0.4790 c          1 QLS       0.678300
      5 C19         -0.6990    -1.2320    -1.8550 c3         1 QLS      -0.082400
      6 C20         -1.8450    -1.7470    -2.7580 c3         1 QLS      -0.077400
      7 C22         -0.0850     0.8590     0.1530 cc         1 QLS       0.383800
      8 C24         -0.8720     0.1590     2.0110 cd         1 QLS       0.312200
      9 C34         -8.4680    -0.1540     1.6290 c          1 QLS       0.763100
     10 C27         -3.3590     0.7810     1.6130 ca         1 QLS      -0.123000
     11 C2           9.0090    -0.3470     0.2770 ca         1 QLS      -0.116000
     12 C3           8.9610    -1.6970     0.5750 ca         1 QLS      -0.108000
     13 C4           7.7220    -2.3120     0.6790 ca         1 QLS       0.034400
     14 C5           6.5480    -1.6020     0.5070 ca         1 QLS      -0.107000
     15 C6           6.5820    -0.2380     0.2200 ca         1 QLS      -0.022800
     16 C7           7.8360     0.3690     0.1090 ca         1 QLS       0.006800
     17 N8           7.9310     1.7460    -0.2010 na         1 QLS       0.001500
     18 C9           8.5820     2.7200     0.4440 cc         1 QLS       0.393400
     19 N10          8.4300     3.8250    -0.2340 nd         1 QLS      -0.379000
     20 N11          7.6840     3.5060    -1.2950 nd         1 QLS      -0.038000
     21 N12          7.3810     2.2720    -1.2940 nc         1 QLS      -0.187800
     22 C14          4.2030     0.0310    -0.3960 cf         1 QLS      -0.210200
     23 O16          2.9460     2.0300    -0.0810 o          1 QLS      -0.585100
     24 N21          1.9330     0.2640    -1.0560 ns         1 QLS      -0.553900
     25 N23          0.2500     0.1930     1.2270 nd         1 QLS      -0.671000
     26 C25         -1.9110     0.8090     1.4000 cc         1 QLS      -0.161600
     27 N26         -1.3620     1.2870     0.2320 na         1 QLS      -0.306900
     28 C28         -3.9460     1.2340     2.7850 ca         1 QLS      -0.029000
     29 C29         -5.3040     1.1140     3.0160 ca         1 QLS      -0.237000
     30 C30         -6.1140     0.5210     2.0460 ca         1 QLS       0.143600
     31 C31         -5.5550     0.0590     0.8560 ca         1 QLS      -0.235000
     32 C32         -4.1820     0.1750     0.6290 ca         1 QLS       0.232600
     33 N33         -7.4740     0.4390     2.3420 ns         1 QLS      -0.466100
     34 O35         -8.3480    -0.7320     0.5730 o          1 QLS      -0.570000
     35 O36         -9.6230    -0.0060     2.2750 os         1 QLS      -0.434900
     36 C37        -10.7780    -0.5870     1.6730 c3         1 QLS       0.147700
     37 C38         -3.1630    -2.1550    -2.0720 c3         1 QLS      -0.092400
     38 C39         -4.1620    -1.1010    -1.5580 c3         1 QLS       0.184500
     39 N40         -3.5890    -0.2900    -0.5220 nu         1 QLS      -0.793600
     40 C41         -4.7090    -0.2010    -2.6630 c3         1 QLS       0.643900
     41 F42         -5.1830    -0.9090    -3.6960 f          1 QLS      -0.235967
     42 F43         -5.7170     0.5660    -2.2230 f          1 QLS      -0.235967
     43 F44         -3.7880     0.6410    -3.1510 f          1 QLS      -0.235967
     44 H49          5.3640     1.5690     0.3880 ha         1 QLS       0.165000
     45 H53         -1.1020     0.8230    -2.4000 hc         1 QLS       0.057700
     46 H52          0.3050     0.1550    -3.1640 hc         1 QLS       0.057700
     47 H51          0.7870     1.9250    -1.4890 h1         1 QLS       0.089700
     48 H54          0.1470    -1.9180    -1.9390 hc         1 QLS       0.046200
     49 H55         -0.9840    -1.3020    -0.8010 hc         1 QLS       0.046200
     50 H57         -2.0290    -1.0350    -3.5630 hc         1 QLS       0.051700
     51 H56         -1.4990    -2.6500    -3.2610 hc         1 QLS       0.051700
     52 H59         -0.8970    -0.3780     2.9470 h4         1 QLS       0.040100
     53 H45          9.9670     0.1430     0.1630 ha         1 QLS       0.152000
     54 H46          9.8740    -2.2580     0.7140 ha         1 QLS       0.159000
     55 H47          5.5960    -2.1000     0.6330 ha         1 QLS       0.159000
     56 H48          9.1180     2.5870     1.3680 h5         1 QLS       0.078100
     57 H50          4.1390    -0.9910    -0.7520 ha         1 QLS       0.128000
     58 H58          2.0090    -0.7140    -1.2880 hn         1 QLS       0.318500
     59 H70         -1.8450     1.8580    -0.4450 hn         1 QLS       0.311700
     60 H60         -3.3210     1.6960     3.5390 ha         1 QLS       0.141000
     61 H61         -5.7320     1.4820     3.9390 ha         1 QLS       0.136000
     62 H62         -6.1880    -0.3960     0.1140 ha         1 QLS       0.171000
     63 H63         -7.7510     0.8600     3.2170 hn         1 QLS       0.334500
     64 H65        -10.9890    -0.1450     0.7000 h1         1 QLS       0.051700
     65 H66        -10.6740    -1.6660     1.5650 h1         1 QLS       0.051700
     66 H64        -11.6010    -0.3730     2.3490 h1         1 QLS       0.051700
     67 H68         -3.7080    -2.8000    -2.7620 hc         1 QLS       0.062200
     68 H67         -2.9300    -2.7890    -1.2120 hc         1 QLS       0.062200
     69 H69         -5.0180    -1.6680    -1.1740 h1         1 QLS       0.089700
     70 H71         -2.5890    -0.3310    -0.4920 hn         1 QLS       0.440800
     71 CL1          7.6410    -3.9970     1.0460 cl         1 QLS      -0.087400
@<TRIPOS>BOND
     1     1    15 1   
     2     1    22 2   
     3     1    44 1   
     4     2     3 1   
     5     2     5 1   
     6     2    45 1   
     7     2    46 1   
     8     3     7 1   
     9     3    24 1   
    10     3    47 1   
    11     4    22 1   
    12     4    23 2   
    13     4    24 1   
    14     5     6 1   
    15     5    48 1   
    16     5    49 1   
    17     6    37 1   
    18     6    50 1   
    19     6    51 1   
    20     7    25 2   
    21     7    27 1   
    22     8    25 1   
    23     8    26 2   
    24     8    52 1   
    25     9    33 1   
    26     9    34 2   
    27     9    35 1   
    28    10    26 1   
    29    10    28 ar  
    30    10    32 ar  
    31    11    12 ar  
    32    11    16 ar  
    33    11    53 1   
    34    12    13 ar  
    35    12    54 1   
    36    13    14 ar  
    37    13    71 1   
    38    14    15 ar  
    39    14    55 1   
    40    15    16 ar  
    41    16    17 1   
    42    17    18 1   
    43    17    21 1   
    44    18    19 2   
    45    18    56 1   
    46    19    20 1   
    47    20    21 2   
    48    22    57 1   
    49    24    58 1   
    50    26    27 1   
    51    27    59 1   
    52    28    29 ar  
    53    28    60 1   
    54    29    30 ar  
    55    29    61 1   
    56    30    31 ar  
    57    30    33 1   
    58    31    32 ar  
    59    31    62 1   
    60    32    39 1   
    61    33    63 1   
    62    35    36 1   
    63    36    64 1   
    64    36    65 1   
    65    36    66 1   
    66    37    38 1   
    67    37    67 1   
    68    37    68 1   
    69    38    39 1   
    70    38    40 1   
    71    38    69 1   
    72    39    70 1   
    73    40    41 1   
    74    40    42 1   
    75    40    43 1   
@<TRIPOS>SUBSTRUCTURE
     1 QLS         1 TEMP              0 ****  ****    0 ROOT
