@<TRIPOS>MOLECULE
QLS
   71    75     1     0     0
SMALL
No Charge or Current Charge


@<TRIPOS>ATOM
      1 C13          5.5180     0.5710    -0.1750 ce         1 QLS      -0.097200
      2 C18          0.1260     1.2550    -1.5590 c3         1 QLS      -0.098400
      3 C17          0.6350     1.7680    -0.1770 c3         1 QLS       0.099400
      4 C15          3.1190     1.3210    -0.3320 c          1 QLS       0.611300
      5 C19         -0.3660    -0.2240    -1.5610 c3         1 QLS      -0.082400
      6 C20         -1.3120    -0.5750    -2.7420 c3         1 QLS      -0.077400
      7 C22         -0.4460     1.6660     0.8970 cc         1 QLS       0.383800
      8 C24         -1.5260     1.0120     2.6690 cd         1 QLS       0.246900
      9 C34         -8.6900    -1.2740     1.1680 c          1 QLS       0.647100
     10 C27         -3.8450     0.8010     1.7600 ca         1 QLS      -0.123000
     11 C2           8.9330    -1.1570     0.0280 ca         1 QLS      -0.098000
     12 C3           8.8940    -1.6720     1.3340 ca         1 QLS      -0.090000
     13 C4           7.7630    -1.4600     2.1330 ca         1 QLS       0.126000
     14 C5           6.6700    -0.7360     1.6330 ca         1 QLS      -0.089000
     15 C6           6.6910    -0.2130     0.3220 ca         1 QLS      -0.022800
     16 C7           7.8400    -0.4280    -0.4870 ca         1 QLS       0.006800
     17 N8           7.9150     0.0540    -1.7950 na         1 QLS       0.001500
     18 C9           8.8660     0.9140    -2.2600 cc         1 QLS       0.393400
     19 N10          8.6480     1.0080    -3.5610 nd         1 QLS      -0.379000
     20 N11          7.5810     0.1730    -3.8470 nd         1 QLS      -0.038000
     21 N12          7.1370    -0.4420    -2.7800 nc         1 QLS      -0.187800
     22 C14          4.2150     0.4930     0.2310 cf         1 QLS      -0.260200
     23 O16          3.3030     2.1550    -1.2060 o          1 QLS      -0.585100
     24 N21          1.8800     1.0810     0.2090 ns         1 QLS      -0.486900
     25 N23         -0.2640     1.2550     2.1500 nd         1 QLS      -0.671000
     26 C25         -2.4640     1.2810     1.7070 cc         1 QLS      -0.147000
     27 N26         -1.7890     1.7620     0.6190 na         1 QLS      -0.306500
     28 C28         -4.6910     1.2180     2.8010 ca         1 QLS      -0.011000
     29 C29         -6.0220     0.7720     2.8500 ca         1 QLS      -0.219000
     30 C30         -6.5260    -0.1020     1.8710 ca         1 QLS       0.051000
     31 C31         -5.6690    -0.5380     0.8410 ca         1 QLS      -0.217000
     32 C32         -4.3420    -0.0910     0.7790 ca         1 QLS       0.371000
     33 N33         -7.8790    -0.5130     1.9880 ns         1 QLS      -0.140000
     34 O35         -8.3820    -1.7610     0.0880 o          1 QLS      -0.521000
     35 O36         -9.9250    -1.3880     1.7480 os         1 QLS      -0.458100
     36 C37        -10.9320    -2.1400     1.0460 c3         1 QLS       0.170900
     37 C38         -2.5670    -1.4340    -2.3820 c3         1 QLS      -0.092400
     38 C39         -3.7760    -0.7420    -1.6600 c3         1 QLS       0.184500
     39 N40         -3.4800    -0.5770    -0.2110 nu         1 QLS      -0.987200
     40 C41         -4.3040     0.5680    -2.3580 c3         1 QLS       0.280000
     41 F42         -4.3820     0.4120    -3.7010 f          1 QLS      -0.114667
     42 F43         -5.5450     0.8860    -1.9220 f          1 QLS      -0.114667
     43 F44         -3.5030     1.6310    -2.1100 f          1 QLS      -0.114667
     44 H49          5.7530     1.2860    -0.9670 ha         1 QLS       0.215000
     45 H53         -0.6890     1.9130    -1.8850 hc         1 QLS       0.057700
     46 H52          0.9130     1.3700    -2.3140 hc         1 QLS       0.057700
     47 H51          0.8700     2.8360    -0.2840 h1         1 QLS       0.089700
     48 H54          0.5090    -0.8850    -1.6000 hc         1 QLS       0.046200
     49 H55         -0.8540    -0.4680    -0.6150 hc         1 QLS       0.046200
     50 H57         -1.6280     0.3320    -3.2700 hc         1 QLS       0.051700
     51 H56         -0.7230    -1.1330    -3.4800 hc         1 QLS       0.051700
     52 H59         -1.6730     0.5790     3.6510 h4         1 QLS       0.040100
     53 H45          9.8120    -1.3330    -0.5870 ha         1 QLS       0.134000
     54 H46          9.7380    -2.2350     1.7250 ha         1 QLS       0.141000
     55 H47          5.8130    -0.5710     2.2780 ha         1 QLS       0.141000
     56 H48          9.6200     1.3990    -1.6550 h5         1 QLS       0.078100
     57 H50          3.9360    -0.2190     1.0050 ha         1 QLS       0.178000
     58 H58          1.8290     0.4030     0.9600 hn         1 QLS       0.318500
     59 H70         -2.1880     2.0160    -0.2750 hn         1 QLS       0.362000
     60 H60         -4.3190     1.8980     3.5650 ha         1 QLS       0.123000
     61 H61         -6.6650     1.1120     3.6580 ha         1 QLS       0.118000
     62 H62         -6.0100    -1.2400     0.0920 ha         1 QLS       0.153000
     63 H63         -8.3390    -0.1920     2.8290 hn         1 QLS       0.168000
     64 H65        -11.1410    -1.6960     0.0650 h1         1 QLS       0.051700
     65 H66        -10.6130    -3.1800     0.8970 h1         1 QLS       0.051700
     66 H64        -11.8680    -2.1520     1.6190 h1         1 QLS       0.051700
     67 H68         -2.9510    -1.8460    -3.3230 hc         1 QLS       0.062200
     68 H67         -2.2500    -2.3060    -1.7970 hc         1 QLS       0.062200
     69 H69         -4.6030    -1.4620    -1.7410 h1         1 QLS       0.089700
     70 H71         -2.5100    -0.3590     0.0070 hn         1 QLS       0.496000
     71 Cl1          7.7150    -2.0990     3.7710 cl         1 QLS      -0.179000
@<TRIPOS>BOND
     1     1    15 1   
     2     1    22 2   
     3     1    44 1   
     4     2     3 1   
     5     2     5 1   
     6     2    45 1   
     7     2    46 1   
     8     3     7 1   
     9     3    24 1   
    10     3    47 1   
    11     4    22 1   
    12     4    23 2   
    13     4    24 1   
    14     5     6 1   
    15     5    48 1   
    16     5    49 1   
    17     6    37 1   
    18     6    50 1   
    19     6    51 1   
    20     7    25 2   
    21     7    27 1   
    22     8    25 1   
    23     8    26 2   
    24     8    52 1   
    25     9    33 1   
    26     9    34 2   
    27     9    35 1   
    28    10    26 1   
    29    10    28 ar  
    30    10    32 ar  
    31    11    12 ar  
    32    11    16 ar  
    33    11    53 1   
    34    12    13 ar  
    35    12    54 1   
    36    13    14 ar  
    37    13    71 1   
    38    14    15 ar  
    39    14    55 1   
    40    15    16 ar  
    41    16    17 1   
    42    17    18 1   
    43    17    21 1   
    44    18    19 2   
    45    18    56 1   
    46    19    20 1   
    47    20    21 2   
    48    22    57 1   
    49    24    58 1   
    50    26    27 1   
    51    27    59 1   
    52    28    29 ar  
    53    28    60 1   
    54    29    30 ar  
    55    29    61 1   
    56    30    31 ar  
    57    30    33 1   
    58    31    32 ar  
    59    31    62 1   
    60    32    39 1   
    61    33    63 1   
    62    35    36 1   
    63    36    64 1   
    64    36    65 1   
    65    36    66 1   
    66    37    38 1   
    67    37    67 1   
    68    37    68 1   
    69    38    39 1   
    70    38    40 1   
    71    38    69 1   
    72    39    70 1   
    73    40    41 1   
    74    40    42 1   
    75    40    43 1   
@<TRIPOS>SUBSTRUCTURE
     1 QLS         1 TEMP              0 ****  ****    0 ROOT
