@<TRIPOS>MOLECULE
QLU
   44    47     1     0     0
SMALL
No Charge or Current Charge


@<TRIPOS>ATOM
      1 C02        -44.6260   -31.0240     2.5610 c          1 QLU       0.719000
      2 C03        -44.6250   -29.9410     1.4460 c5         1 QLU      -0.203700
      3 C04        -43.7650   -28.6810     1.8600 c5         1 QLU      -0.014100
      4 C05        -44.4040   -27.6270     0.9900 ca         1 QLU      -0.090300
      5 C06        -43.8650   -26.3770     0.6370 ca         1 QLU       0.116100
      6 C08        -44.6130   -25.5170    -0.1870 ca         1 QLU      -0.207000
      7 C09        -45.8860   -25.9090    -0.6480 ca         1 QLU      -0.102000
      8 C10        -46.4140   -27.1630    -0.2830 ca         1 QLU      -0.111000
      9 C11        -45.6560   -28.0110     0.5410 ca         1 QLU      -0.064300
     10 C12        -46.0570   -29.3800     1.0410 c5         1 QLU       0.169000
     11 C15        -48.9540   -29.2680     3.4990 ca         1 QLU      -0.242600
     12 C16        -48.3170   -29.4110     4.7540 ca         1 QLU       0.003000
     13 C17        -49.1220   -29.4380     5.9030 ca         1 QLU      -0.215300
     14 C18        -50.5110   -29.3300     5.7380 ca         1 QLU       0.623900
     15 C20        -50.9380   -29.7990     8.1280 c6         1 QLU       0.243800
     16 C21        -49.5300   -29.2230     8.4180 c6         1 QLU      -0.092400
     17 C22        -48.5200   -29.6120     7.3040 c6         1 QLU      -0.013100
     18 C24        -50.3580   -29.1640     3.4690 ca         1 QLU       0.419900
     19 N13        -46.8420   -29.3490     2.2730 ns         1 QLU      -0.481900
     20 N19        -51.3650   -29.3400     6.8000 nu         1 QLU      -0.957100
     21 N23        -51.1360   -29.1950     4.5760 nb         1 QLU      -0.778000
     22 O01        -44.2350   -32.1450     2.2780 o          1 QLU      -0.729500
     23 O07        -42.6350   -25.9930     1.0840 oh         1 QLU      -0.540100
     24 O25        -48.7940   -29.0760     1.1320 o          1 QLU      -0.673100
     25 O26        -44.9710   -30.7290     3.6980 o          1 QLU      -0.729500
     26 H031       -44.1910   -30.3930     0.5470 hc         1 QLU       0.051700
     27 H042       -43.8690   -28.4270     2.9210 hc         1 QLU       0.061200
     28 H041       -42.6980   -28.8240     1.6560 hc         1 QLU       0.061200
     29 H081       -44.2160   -24.5460    -0.4730 ha         1 QLU       0.093000
     30 H091       -46.4640   -25.2430    -1.2860 ha         1 QLU       0.096000
     31 H101       -47.3980   -27.4690    -0.6340 ha         1 QLU       0.134000
     32 H121       -46.5230   -29.9920     0.2550 h1         1 QLU       0.067700
     33 H161       -47.2370   -29.4990     4.8560 ha         1 QLU       0.159000
     34 H201       -51.6510   -29.4790     8.9020 h1         1 QLU       0.030200
     35 H202       -50.8860   -30.8980     8.1490 h1         1 QLU       0.030200
     36 H212       -49.5940   -28.1290     8.4870 hc         1 QLU       0.047200
     37 H211       -49.1710   -29.5780     9.3930 hc         1 QLU       0.047200
     38 H221       -47.6050   -29.0120     7.4070 hc         1 QLU       0.055700
     39 H222       -48.2210   -30.6610     7.4350 hc         1 QLU       0.055700
     40 H241       -50.8940   -29.0520     2.5270 h4         1 QLU       0.032100
     41 H131       -46.4300   -29.5570     3.1760 hn         1 QLU       0.373500
     42 H191       -52.3400   -29.4180     6.5250 hn         1 QLU       0.494000
     43 H071       -42.4460   -25.0990     0.7300 ho         1 QLU       0.443000
     44 C14        -48.2100   -29.2200     2.1970 c          1 QLU       0.619700
@<TRIPOS>BOND
     1     1     2 1   
     2     1    22 1   
     3     1    25 1   
     4     2     3 1   
     5     2    10 1   
     6     2    26 1   
     7     3     4 1   
     8     3    27 1   
     9     3    28 1   
    10     4     5 ar  
    11     4     9 ar  
    12     5     6 ar  
    13     5    23 1   
    14     6     7 ar  
    15     6    29 1   
    16     7     8 ar  
    17     7    30 1   
    18     8     9 ar  
    19     8    31 1   
    20     9    10 1   
    21    10    19 1   
    22    10    32 1   
    23    11    12 ar  
    24    11    18 ar  
    25    11    44 1   
    26    12    13 ar  
    27    12    33 1   
    28    13    14 ar  
    29    13    17 1   
    30    14    20 1   
    31    14    21 ar  
    32    15    16 1   
    33    15    20 1   
    34    15    34 1   
    35    15    35 1   
    36    16    17 1   
    37    16    36 1   
    38    16    37 1   
    39    17    38 1   
    40    17    39 1   
    41    18    21 ar  
    42    18    40 1   
    43    19    41 1   
    44    19    44 1   
    45    20    42 1   
    46    23    43 1   
    47    24    44 2   
@<TRIPOS>SUBSTRUCTURE
     1 QLU         1 TEMP              0 ****  ****    0 ROOT
