@<TRIPOS>MOLECULE
QLU
   44    47     1     0     0
SMALL
abcg2


@<TRIPOS>ATOM
      1 C02        -44.5380   -30.8680     2.7530 c          1 QLU       0.719000
      2 C03        -44.5420   -29.8800     1.5710 c5         1 QLU      -0.203700
      3 C04        -43.7080   -28.6010     1.8180 c5         1 QLU      -0.014100
      4 C05        -44.3890   -27.5750     0.9570 ca         1 QLU      -0.090300
      5 C06        -43.9260   -26.3230     0.5650 ca         1 QLU       0.116100
      6 C08        -44.7280   -25.5200    -0.2480 ca         1 QLU      -0.207000
      7 C09        -45.9830   -25.9680    -0.6520 ca         1 QLU      -0.102000
      8 C10        -46.4620   -27.2140    -0.2540 ca         1 QLU      -0.111000
      9 C11        -45.6490   -28.0040     0.5500 ca         1 QLU      -0.064300
     10 C12        -45.9530   -29.3690     1.1450 c5         1 QLU       0.169000
     11 C15        -48.9460   -29.2870     3.4740 ca         1 QLU      -0.242600
     12 C16        -48.3890   -29.6080     4.7240 ca         1 QLU       0.003000
     13 C17        -49.1660   -29.6370     5.8580 ca         1 QLU      -0.215300
     14 C18        -50.5390   -29.3050     5.7190 ca         1 QLU       0.623900
     15 C20        -50.9260   -29.6520     8.1390 c6         1 QLU       0.243800
     16 C21        -49.4460   -29.3390     8.3250 c6         1 QLU      -0.092400
     17 C22        -48.6260   -30.0020     7.2180 c6         1 QLU      -0.013100
     18 C24        -50.3060   -28.9980     3.4540 ca         1 QLU       0.419900
     19 N13        -46.8430   -29.2710     2.2980 ns         1 QLU      -0.481900
     20 N19        -51.3540   -29.2740     6.8010 nu         1 QLU      -0.957100
     21 N23        -51.0890   -28.9950     4.5300 nb         1 QLU      -0.778000
     22 O01        -44.1910   -32.0490     2.5260 o          1 QLU      -0.729500
     23 O07        -42.6880   -25.9310     0.9960 oh         1 QLU      -0.540100
     24 O25        -48.7620   -29.1720     1.1010 o          1 QLU      -0.673100
     25 O26        -44.8950   -30.4050     3.8770 o          1 QLU      -0.729500
     26 H031       -44.1300   -30.3920     0.7020 hc         1 QLU       0.051700
     27 H042       -43.7440   -28.3140     2.8730 hc         1 QLU       0.061200
     28 H041       -42.6580   -28.7460     1.5560 hc         1 QLU       0.061200
     29 H081       -44.3630   -24.5490    -0.5640 ha         1 QLU       0.093000
     30 H091       -46.5900   -25.3320    -1.2860 ha         1 QLU       0.096000
     31 H101       -47.4410   -27.5590    -0.5550 ha         1 QLU       0.134000
     32 H121       -46.4140   -30.0360     0.4160 h1         1 QLU       0.067700
     33 H161       -47.3390   -29.8620     4.8200 ha         1 QLU       0.159000
     34 H201       -51.5320   -29.1000     8.8580 h1         1 QLU       0.030200
     35 H202       -51.1010   -30.7210     8.3110 h1         1 QLU       0.030200
     36 H212       -49.3000   -28.2560     8.2940 hc         1 QLU       0.047200
     37 H211       -49.1220   -29.6900     9.3050 hc         1 QLU       0.047200
     38 H221       -47.5750   -29.7170     7.2870 hc         1 QLU       0.055700
     39 H222       -48.6670   -31.0900     7.3470 hc         1 QLU       0.055700
     40 H241       -50.7800   -28.7480     2.5120 h4         1 QLU       0.032100
     41 H131       -46.3850   -29.4380     3.1900 hn         1 QLU       0.373500
     42 H191       -52.3310   -29.1020     6.6270 hn         1 QLU       0.494000
     43 H071       -42.4810   -25.0550     0.6450 ho         1 QLU       0.443000
     44 C14        -48.1840   -29.2430     2.1960 c          1 QLU       0.619700
@<TRIPOS>BOND
     1     1     2 1   
     2     1    22 1   
     3     1    25 1   
     4     2     3 1   
     5     2    10 1   
     6     2    26 1   
     7     3     4 1   
     8     3    27 1   
     9     3    28 1   
    10     4     5 ar  
    11     4     9 ar  
    12     5     6 ar  
    13     5    23 1   
    14     6     7 ar  
    15     6    29 1   
    16     7     8 ar  
    17     7    30 1   
    18     8     9 ar  
    19     8    31 1   
    20     9    10 1   
    21    10    19 1   
    22    10    32 1   
    23    11    12 ar  
    24    11    18 ar  
    25    11    44 1   
    26    12    13 ar  
    27    12    33 1   
    28    13    14 ar  
    29    13    17 1   
    30    14    20 1   
    31    14    21 ar  
    32    15    16 1   
    33    15    20 1   
    34    15    34 1   
    35    15    35 1   
    36    16    17 1   
    37    16    36 1   
    38    16    37 1   
    39    17    38 1   
    40    17    39 1   
    41    18    21 ar  
    42    18    40 1   
    43    19    41 1   
    44    19    44 1   
    45    20    42 1   
    46    23    43 1   
    47    24    44 2   
@<TRIPOS>SUBSTRUCTURE
     1 QLU         1 TEMP              0 ****  ****    0 ROOT
