@<TRIPOS>MOLECULE
QLV
   43    44     1     0     0
SMALL
No Charge or Current Charge


@<TRIPOS>ATOM
      1 C4         -34.2880     8.2570    21.3140 ca         1 QLV       0.139000
      2 C5         -35.4710     9.0140    21.5150 ca         1 QLV       0.360900
      3 C6         -33.5040     5.1580    20.2710 c3         1 QLV      -0.383100
      4 N1         -34.0190     7.1140    22.1050 nu         1 QLV      -0.869100
      5 C7         -32.7630    10.2990    18.5050 ce         1 QLV      -0.161200
      6 C8         -32.4510    11.5810    18.2120 c2         1 QLV      -0.182200
      7 C9         -31.4520    11.9640    17.1310 c6         1 QLV      -0.035500
      8 C10        -32.1760    12.1900    15.7760 c6         1 QLV      -0.068900
      9 C11        -31.1790    12.5900    14.6570 c6         1 QLV      -0.125400
     10 C12        -30.3300    13.8170    15.0680 c6         1 QLV       0.180000
     11 C13        -29.6310    13.6330    16.4360 c6         1 QLV      -0.125400
     12 C14        -30.6430    13.2260    17.5390 c6         1 QLV      -0.068900
     13 N          -35.8050    10.1140    20.7990 nb         1 QLV      -0.753000
     14 C          -36.5260    12.3450    19.3080 c3         1 QLV       0.157900
     15 O          -35.2990    11.6240    19.0760 os         1 QLV      -0.454300
     16 C1         -34.9510    10.5280    19.8370 ca         1 QLV       0.601300
     17 C2         -33.7270     9.8590    19.5630 ca         1 QLV      -0.097800
     18 C3         -33.4070     8.7080    20.3110 ca         1 QLV      -0.017000
     19 F          -31.1470    14.9620    15.1080 f          1 QLV      -0.125500
     20 F1         -29.3600    14.0610    14.0810 f          1 QLV      -0.125500
     21 O1         -31.6470     6.3890    21.7180 o          1 QLV      -0.524500
     22 O2         -33.3110     4.8680    22.8950 o          1 QLV      -0.524500
     23 S          -32.9940     5.8300    21.8390 s6         1 QLV       1.189100
     24 H1         -36.1860     8.7170    22.2810 h4         1 QLV       0.017100
     25 H2         -34.5560     4.8700    20.3620 h1         1 QLV       0.103033
     26 H3         -33.3670     5.9320    19.5110 h1         1 QLV       0.103033
     27 H4         -32.8720     4.2870    20.0680 h1         1 QLV       0.103033
     28 H5         -34.7230     6.7830    22.7570 hn         1 QLV       0.491000
     29 H6         -32.2680     9.4840    17.9720 ha         1 QLV       0.172000
     30 H7         -32.9140    12.4090    18.7520 ha         1 QLV       0.189000
     31 H8         -30.7410    11.1340    17.0060 hc         1 QLV       0.052700
     32 H9         -32.9400    12.9720    15.8900 hc         1 QLV       0.053950
     33 H10        -32.7120    11.2770    15.4830 hc         1 QLV       0.053950
     34 H11        -31.7240    12.8040    13.7270 hc         1 QLV       0.067200
     35 H12        -30.5140    11.7430    14.4400 hc         1 QLV       0.067200
     36 H13        -28.8550    12.8600    16.3490 hc         1 QLV       0.067200
     37 H14        -29.1150    14.5600    16.7230 hc         1 QLV       0.067200
     38 H15        -30.1070    13.0370    18.4800 hc         1 QLV       0.053950
     39 H16        -31.3290    14.0630    17.7360 hc         1 QLV       0.053950
     40 H17        -36.6150    13.1820    18.6040 h1         1 QLV       0.049700
     41 H18        -37.3970    11.6920    19.1690 h1         1 QLV       0.049700
     42 H19        -36.5540    12.7540    20.3260 h1         1 QLV       0.049700
     43 H20        -32.4740     8.1910    20.1130 ha         1 QLV       0.149000
@<TRIPOS>BOND
     1     1     2 ar  
     2     1     4 1   
     3     1    18 ar  
     4     2    13 ar  
     5     2    24 1   
     6     3    23 1   
     7     3    25 1   
     8     3    26 1   
     9     3    27 1   
    10     4    23 1   
    11     4    28 1   
    12     5     6 2   
    13     5    17 1   
    14     5    29 1   
    15     6     7 1   
    16     6    30 1   
    17     7     8 1   
    18     7    12 1   
    19     7    31 1   
    20     8     9 1   
    21     8    32 1   
    22     8    33 1   
    23     9    10 1   
    24     9    34 1   
    25     9    35 1   
    26    10    11 1   
    27    10    19 1   
    28    10    20 1   
    29    11    12 1   
    30    11    36 1   
    31    11    37 1   
    32    12    38 1   
    33    12    39 1   
    34    13    16 ar  
    35    14    15 1   
    36    14    40 1   
    37    14    41 1   
    38    14    42 1   
    39    15    16 1   
    40    16    17 ar  
    41    17    18 ar  
    42    18    43 1   
    43    21    23 2   
    44    22    23 2   
@<TRIPOS>SUBSTRUCTURE
     1 QLV         1 TEMP              0 ****  ****    0 ROOT
