@<TRIPOS>MOLECULE
QLV
   43    44     1     0     0
SMALL
abcg2


@<TRIPOS>ATOM
      1 C4         -33.7980     8.2440    21.2740 ca         1 QLV       0.139000
      2 C5         -35.0800     8.7460    21.3870 ca         1 QLV       0.360900
      3 C6         -34.9200     5.1580    21.0220 c3         1 QLV      -0.383100
      4 N1         -33.3500     7.1640    22.0720 nu         1 QLV      -0.869100
      5 C7         -32.4080    10.5160    18.6510 ce         1 QLV      -0.161200
      6 C8         -32.5010    11.6170    17.9010 c2         1 QLV      -0.182200
      7 C9         -31.4040    12.0880    17.0000 c6         1 QLV      -0.035500
      8 C10        -31.9070    12.2160    15.5580 c6         1 QLV      -0.068900
      9 C11        -30.8230    12.7510    14.6250 c6         1 QLV      -0.125400
     10 C12        -30.2590    14.0540    15.1370 c6         1 QLV       0.180000
     11 C13        -29.7630    13.9690    16.5600 c6         1 QLV      -0.125400
     12 C14        -30.8520    13.4340    17.4870 c6         1 QLV      -0.068900
     13 N          -35.5080     9.7780    20.6700 nb         1 QLV      -0.753000
     14 C          -36.4990    11.7820    19.2610 c3         1 QLV       0.157900
     15 O          -35.1540    11.3620    19.0760 os         1 QLV      -0.454300
     16 C1         -34.7000    10.3450    19.8020 ca         1 QLV       0.601300
     17 C2         -33.3630     9.9280    19.5900 ca         1 QLV      -0.097800
     18 C3         -32.9420     8.8560    20.3630 ca         1 QLV      -0.017000
     19 F          -31.2240    15.0330    15.0510 f          1 QLV      -0.125500
     20 F1         -29.2500    14.4840    14.3130 f          1 QLV      -0.125500
     21 O1         -32.5300     5.7910    20.1430 o          1 QLV      -0.524500
     22 O2         -32.7330     4.7780    22.4360 o          1 QLV      -0.524500
     23 S          -33.2530     5.6480    21.3950 s6         1 QLV       1.189100
     24 H1         -35.7870     8.3100    22.0860 h4         1 QLV       0.017100
     25 H2         -35.4970     5.1230    21.9440 h1         1 QLV       0.103033
     26 H3         -35.3610     5.8660    20.3230 h1         1 QLV       0.103033
     27 H4         -34.8830     4.1690    20.5680 h1         1 QLV       0.103033
     28 H5         -33.7140     7.1420    23.0190 hn         1 QLV       0.491000
     29 H6         -31.4800     9.9530    18.5860 ha         1 QLV       0.172000
     30 H7         -33.3860    12.2410    17.9220 ha         1 QLV       0.189000
     31 H8         -30.5860    11.3570    17.0160 hc         1 QLV       0.052700
     32 H9         -32.7790    12.8780    15.5350 hc         1 QLV       0.053950
     33 H10        -32.2450    11.2450    15.1930 hc         1 QLV       0.053950
     34 H11        -31.2130    12.8850    13.6130 hc         1 QLV       0.067200
     35 H12        -30.0050    12.0290    14.5630 hc         1 QLV       0.067200
     36 H13        -28.9030    13.2950    16.5780 hc         1 QLV       0.067200
     37 H14        -29.4160    14.9490    16.8950 hc         1 QLV       0.067200
     38 H15        -30.4430    13.3260    18.4930 hc         1 QLV       0.053950
     39 H16        -31.6690    14.1590    17.5610 hc         1 QLV       0.053950
     40 H17        -36.6470    12.6070    18.5700 h1         1 QLV       0.049700
     41 H18        -37.2060    10.9840    19.0290 h1         1 QLV       0.049700
     42 H19        -36.6780    12.1250    20.2800 h1         1 QLV       0.049700
     43 H20        -31.9250     8.5010    20.2640 ha         1 QLV       0.149000
@<TRIPOS>BOND
     1     1     2 ar  
     2     1     4 1   
     3     1    18 ar  
     4     2    13 ar  
     5     2    24 1   
     6     3    23 1   
     7     3    25 1   
     8     3    26 1   
     9     3    27 1   
    10     4    23 1   
    11     4    28 1   
    12     5     6 2   
    13     5    17 1   
    14     5    29 1   
    15     6     7 1   
    16     6    30 1   
    17     7     8 1   
    18     7    12 1   
    19     7    31 1   
    20     8     9 1   
    21     8    32 1   
    22     8    33 1   
    23     9    10 1   
    24     9    34 1   
    25     9    35 1   
    26    10    11 1   
    27    10    19 1   
    28    10    20 1   
    29    11    12 1   
    30    11    36 1   
    31    11    37 1   
    32    12    38 1   
    33    12    39 1   
    34    13    16 ar  
    35    14    15 1   
    36    14    40 1   
    37    14    41 1   
    38    14    42 1   
    39    15    16 1   
    40    16    17 ar  
    41    17    18 ar  
    42    18    43 1   
    43    21    23 2   
    44    22    23 2   
@<TRIPOS>SUBSTRUCTURE
     1 QLV         1 TEMP              0 ****  ****    0 ROOT
