@<TRIPOS>MOLECULE
QLW
   49    51     1     0     0
SMALL
abcg2


@<TRIPOS>ATOM
      1 CAA         -6.7040     2.0260    -1.2280 c3         1 QLW       0.035900
      2 NAW         -6.1850     1.5090     0.0270 nh         1 QLW      -0.275700
      3 CAB         -6.7060     2.0230     1.2810 c3         1 QLW       0.035900
      4 CAV         -5.2390     0.5760     0.0260 cc         1 QLW       0.434900
      5 CAM         -4.7060     0.0440    -1.1780 cc         1 QLW      -0.383600
      6 CAO         -3.7370    -0.9090    -1.1370 cd         1 QLW       0.075000
      7 CAL         -4.7010     0.0460     1.2280 cc         1 QLW      -0.383600
      8 CAN         -3.7320    -0.9070     1.1850 cd         1 QLW       0.075000
      9 NAX         -3.2520    -1.3890     0.0230 na         1 QLW      -0.420200
     10 CAR         -2.1420    -2.3560     0.0220 c3         1 QLW       0.253100
     11 CAU         -0.8110    -1.6590     0.0200 ca         1 QLW      -0.165300
     12 CAK         -0.1900    -1.3150     1.2160 ca         1 QLW      -0.083000
     13 CAI          1.0200    -0.6370     1.2130 ca         1 QLW      -0.103000
     14 CAJ         -0.1940    -1.3140    -1.1780 ca         1 QLW      -0.083000
     15 CAH          1.0160    -0.6360    -1.1780 ca         1 QLW      -0.103000
     16 CAT          1.6400    -0.2850     0.0170 ca         1 QLW      -0.031300
     17 CAQ          2.9790     0.3940     0.0150 c3         1 QLW      -0.044100
     18 CAP          4.1290    -0.6260     0.0160 c3         1 QLW      -0.023100
     19 CAS          5.4710     0.0490     0.0170 ca         1 QLW      -0.093300
     20 CAF          6.0940     0.3960     1.2140 ca         1 QLW      -0.106000
     21 CAD          7.3130     1.0610     1.2180 ca         1 QLW      -0.105000
     22 CAC          7.9290     1.3940     0.0180 ca         1 QLW      -0.101000
     23 CAE          7.3180     1.0540    -1.1820 ca         1 QLW      -0.105000
     24 CAG          6.0990     0.3890    -1.1800 ca         1 QLW      -0.106000
     25 HAA1        -5.9190     2.4980    -1.8190 h1         1 QLW       0.069367
     26 HAA2        -7.1640     1.2360    -1.8230 h1         1 QLW       0.069367
     27 HAA3        -7.4630     2.7730    -1.0190 h1         1 QLW       0.069367
     28 HAB1        -7.4680     2.7660     1.0730 h1         1 QLW       0.069367
     29 HAB2        -7.1620     1.2310     1.8770 h1         1 QLW       0.069367
     30 HAB3        -5.9230     2.4980     1.8730 h1         1 QLW       0.069367
     31 HAM         -5.0480     0.3690    -2.1480 ha         1 QLW       0.230000
     32 HAL         -5.0380     0.3740     2.2000 ha         1 QLW       0.230000
     33 HAO         -3.3230    -1.3250    -2.0450 h4         1 QLW       0.238000
     34 HAN         -3.3130    -1.3200     2.0910 h4         1 QLW       0.238000
     35 HAR1        -2.2590    -2.9910     0.8990 h1         1 QLW       0.087700
     36 HAR2        -2.2610    -2.9910    -0.8550 h1         1 QLW       0.087700
     37 HAK         -0.6480    -1.5810     2.1620 ha         1 QLW       0.110000
     38 HAJ         -0.6550    -1.5780    -2.1230 ha         1 QLW       0.110000
     39 HAI          1.4870    -0.3810     2.1560 ha         1 QLW       0.131000
     40 HAH          1.4810    -0.3790    -2.1220 ha         1 QLW       0.131000
     41 HAQ1         3.0730     1.0380    -0.8630 hc         1 QLW       0.061700
     42 HAQ2         3.0740     1.0400     0.8910 hc         1 QLW       0.061700
     43 HAP1         4.0320    -1.2720     0.8930 hc         1 QLW       0.050700
     44 HAP2         4.0330    -1.2720    -0.8610 hc         1 QLW       0.050700
     45 HAF          5.6220     0.1390     2.1550 ha         1 QLW       0.108000
     46 HAG          5.6320     0.1260    -2.1220 ha         1 QLW       0.108000
     47 HAD          7.7830     1.3160     2.1590 ha         1 QLW       0.118000
     48 HAC          8.8800     1.9120     0.0190 ha         1 QLW       0.120000
     49 HAE          7.7930     1.3030    -2.1230 ha         1 QLW       0.118000
@<TRIPOS>BOND
     1     1     2 1   
     2     1    25 1   
     3     1    26 1   
     4     1    27 1   
     5     2     3 1   
     6     2     4 2   
     7     3    28 1   
     8     3    29 1   
     9     3    30 1   
    10     4     5 1   
    11     4     7 1   
    12     5     6 2   
    13     5    31 1   
    14     6     9 1   
    15     6    33 1   
    16     7     8 2   
    17     7    32 1   
    18     8     9 1   
    19     8    34 1   
    20     9    10 1   
    21    10    11 1   
    22    10    35 1   
    23    10    36 1   
    24    11    12 ar  
    25    11    14 ar  
    26    12    13 ar  
    27    12    37 1   
    28    13    16 ar  
    29    13    39 1   
    30    14    15 ar  
    31    14    38 1   
    32    15    16 ar  
    33    15    40 1   
    34    16    17 1   
    35    17    18 1   
    36    17    41 1   
    37    17    42 1   
    38    18    19 1   
    39    18    43 1   
    40    18    44 1   
    41    19    20 ar  
    42    19    24 ar  
    43    20    21 ar  
    44    20    45 1   
    45    21    22 ar  
    46    21    47 1   
    47    22    23 ar  
    48    22    48 1   
    49    23    24 ar  
    50    23    49 1   
    51    24    46 1   
@<TRIPOS>SUBSTRUCTURE
     1 QLW         1 TEMP              0 ****  ****    0 ROOT
