@<TRIPOS>MOLECULE
QLW
   49    51     1     0     0
SMALL
No Charge or Current Charge


@<TRIPOS>ATOM
      1 CAA         -6.9420     1.7310    -1.7610 c3         1 QLW       0.035900
      2 NAW         -6.3880     1.4760    -0.4150 nh         1 QLW      -0.275700
      3 CAB         -6.9920     2.2470     0.6920 c3         1 QLW       0.035900
      4 CAV         -5.3570     0.5640    -0.2020 cc         1 QLW       0.434900
      5 CAM         -5.0860    -0.4760    -1.1210 cc         1 QLW      -0.383600
      6 CAO         -4.0730    -1.3900    -0.9340 cd         1 QLW       0.075000
      7 CAL         -4.5300     0.6340     0.9420 cc         1 QLW      -0.383600
      8 CAN         -3.5040    -0.2550     1.1740 cd         1 QLW       0.075000
      9 NAX         -3.2700    -1.2820     0.2290 na         1 QLW      -0.420200
     10 CAR         -2.1670    -2.2450     0.4630 c3         1 QLW       0.253100
     11 CAU         -0.7830    -1.5930     0.4990 ca         1 QLW      -0.165300
     12 CAK          0.1670    -2.0100     1.4520 ca         1 QLW      -0.083000
     13 CAI          1.4420    -1.4200     1.4910 ca         1 QLW      -0.103000
     14 CAJ         -0.4340    -0.5830    -0.4220 ca         1 QLW      -0.083000
     15 CAH          0.8420     0.0060    -0.3810 ca         1 QLW      -0.103000
     16 CAT          1.7860    -0.4070     0.5770 ca         1 QLW      -0.031300
     17 CAQ          3.1690     0.2280     0.6160 c3         1 QLW      -0.044100
     18 CAP          4.1760    -0.5150    -0.2850 c3         1 QLW      -0.023100
     19 CAS          5.5600     0.1200    -0.2450 ca         1 QLW      -0.093300
     20 CAF          6.5080    -0.3010     0.7080 ca         1 QLW      -0.106000
     21 CAD          7.7830     0.2890     0.7480 ca         1 QLW      -0.105000
     22 CAC          8.1170     1.3060    -0.1630 ca         1 QLW      -0.101000
     23 CAE          7.1740     1.7320    -1.1130 ca         1 QLW      -0.105000
     24 CAG          5.8990     1.1410    -1.1540 ca         1 QLW      -0.106000
     25 HAA1        -6.1420     1.7350    -2.5120 h1         1 QLW       0.069367
     26 HAA2        -7.6720     0.9560    -2.0250 h1         1 QLW       0.069367
     27 HAA3        -7.4430     2.7070    -1.8010 h1         1 QLW       0.069367
     28 HAB1        -7.9950     2.6010     0.4230 h1         1 QLW       0.069367
     29 HAB2        -7.0880     1.6220     1.5900 h1         1 QLW       0.069367
     30 HAB3        -6.3700     3.1180     0.9330 h1         1 QLW       0.069367
     31 HAM         -5.7090    -0.5670    -2.0030 ha         1 QLW       0.230000
     32 HAL         -4.6980     1.4280     1.6600 ha         1 QLW       0.230000
     33 HAO         -3.8550    -2.1980    -1.6330 h4         1 QLW       0.238000
     34 HAN         -2.8490    -0.2110     2.0450 h4         1 QLW       0.238000
     35 HAR1        -2.3550    -2.7610     1.4140 h1         1 QLW       0.087700
     36 HAR2        -2.1720    -3.0140    -0.3210 h1         1 QLW       0.087700
     37 HAK         -0.0800    -2.7930     2.1660 ha         1 QLW       0.110000
     38 HAJ         -1.1490    -0.2510    -1.1720 ha         1 QLW       0.110000
     39 HAI          2.1650    -1.7540     2.2320 ha         1 QLW       0.131000
     40 HAH          1.0960     0.7840    -1.0980 ha         1 QLW       0.131000
     41 HAQ1         3.1130     1.2770     0.3010 hc         1 QLW       0.061700
     42 HAQ2         3.5500     0.2400     1.6450 hc         1 QLW       0.061700
     43 HAP1         4.2330    -1.5650     0.0310 hc         1 QLW       0.050700
     44 HAP2         3.7960    -0.5270    -1.3140 hc         1 QLW       0.050700
     45 HAF          6.2570    -1.0860     1.4180 ha         1 QLW       0.108000
     46 HAG          5.1740     1.4790    -1.8910 ha         1 QLW       0.108000
     47 HAD          8.5120    -0.0410     1.4860 ha         1 QLW       0.118000
     48 HAC          9.1040     1.7630    -0.1310 ha         1 QLW       0.120000
     49 HAE          7.4310     2.5200    -1.8180 ha         1 QLW       0.118000
@<TRIPOS>BOND
     1     1     2 1   
     2     1    25 1   
     3     1    26 1   
     4     1    27 1   
     5     2     3 1   
     6     2     4 2   
     7     3    28 1   
     8     3    29 1   
     9     3    30 1   
    10     4     5 1   
    11     4     7 1   
    12     5     6 2   
    13     5    31 1   
    14     6     9 1   
    15     6    33 1   
    16     7     8 2   
    17     7    32 1   
    18     8     9 1   
    19     8    34 1   
    20     9    10 1   
    21    10    11 1   
    22    10    35 1   
    23    10    36 1   
    24    11    12 ar  
    25    11    14 ar  
    26    12    13 ar  
    27    12    37 1   
    28    13    16 ar  
    29    13    39 1   
    30    14    15 ar  
    31    14    38 1   
    32    15    16 ar  
    33    15    40 1   
    34    16    17 1   
    35    17    18 1   
    36    17    41 1   
    37    17    42 1   
    38    18    19 1   
    39    18    43 1   
    40    18    44 1   
    41    19    20 ar  
    42    19    24 ar  
    43    20    21 ar  
    44    20    45 1   
    45    21    22 ar  
    46    21    47 1   
    47    22    23 ar  
    48    22    48 1   
    49    23    24 ar  
    50    23    49 1   
    51    24    46 1   
@<TRIPOS>SUBSTRUCTURE
     1 QLW         1 TEMP              0 ****  ****    0 ROOT
