@<TRIPOS>MOLECULE
QLX
  141   148     1     0     0
SMALL
No Charge or Current Charge


@<TRIPOS>ATOM
      1 N1           8.7410    21.4530   -16.0030 ns         1 QLX      -0.496900
      2 C7           7.6480    23.2770   -13.6040 c5         1 QLX      -0.122400
      3 C8           8.0660    23.5570   -15.0790 c5         1 QLX       0.040700
      4 N2          11.2170    20.9290   -19.1060 ns         1 QLX      -0.484900
      5 C9           7.6780    22.3270   -15.9610 c          1 QLX       0.606100
      6 O1           8.9280    25.1970   -12.7410 oh         1 QLX      -0.657000
      7 C1           5.5260    26.5480   -18.1870 c3         1 QLX      -0.036700
      8 O5          10.4590    25.0220   -22.7550 os         1 QLX      -0.457000
      9 C5           6.8820    25.5020   -14.1170 c5         1 QLX       0.113000
     10 C6           7.6090    24.7000   -12.9930 c5         1 QLX       0.150300
     11 N3          14.6590    26.6100   -24.0070 ns         1 QLX      -0.491900
     12 O4           9.8410    23.0890   -20.4700 os         1 QLX      -0.450000
     13 C3           6.3880    26.6280   -16.8840 c3         1 QLX      -0.168000
     14 O3          11.5140    21.8640   -17.0470 o          1 QLX      -0.626100
     15 N4          13.3720    27.4700   -21.1180 n2         1 QLX      -0.584900
     16 C37          8.6410    29.2740   -21.6510 ca         1 QLX       0.135000
     17 C36          9.5470    28.7320   -22.5730 ca         1 QLX      -0.113500
     18 C35         10.7710    28.2020   -22.1280 ca         1 QLX      -0.064500
     19 C38          8.9570    29.2930   -20.2860 ca         1 QLX      -0.113500
     20 C39         10.1710    28.7480   -19.8370 ca         1 QLX      -0.064500
     21 C34         11.0910    28.1840   -20.7490 ca         1 QLX      -0.134900
     22 C24         12.4050    27.6340   -20.2700 ce         1 QLX       0.556500
     23 C25         12.6480    27.5290   -18.8220 cc         1 QLX      -0.204900
     24 C29         12.0100    26.5550   -17.9860 cc         1 QLX      -0.051300
     25 C30         11.0720    25.5350   -18.5750 c3         1 QLX      -0.039800
     26 C27         12.3370    26.6640   -16.6480 cd         1 QLX      -0.197300
     27 C28         11.8390    25.8070   -15.5090 c3         1 QLX      -0.020800
     28 S           13.4900    27.9750   -16.3300 ss         1 QLX       0.233000
     29 C26         13.4640    28.3220   -18.0570 cd         1 QLX      -0.126200
     30 N5          14.3150    29.2370   -18.6870 na         1 QLX      -0.263800
     31 C33         14.8890    29.0650   -19.9270 cc         1 QLX       0.394800
     32 N7          15.6640    30.1170   -20.1680 nd         1 QLX      -0.346000
     33 N6          15.5850    30.9730   -19.0890 nd         1 QLX      -0.356000
     34 C31         14.7890    30.4280   -18.1830 cc         1 QLX       0.415800
     35 C32         14.3980    31.0790   -16.8860 c3         1 QLX      -0.127400
     36 C23         14.7730    27.8040   -20.7910 c3         1 QLX       0.106200
     37 C22         15.5520    27.9080   -22.1260 c3         1 QLX      -0.135400
     38 C21         15.5090    26.6040   -22.9240 c          1 QLX       0.595100
     39 O7          16.2210    25.6450   -22.6580 o          1 QLX      -0.635100
     40 C20         14.5120    25.5070   -24.9650 c3         1 QLX       0.077000
     41 C19         13.3180    25.7140   -25.9320 c3         1 QLX       0.137600
     42 O6          12.0680    25.6860   -25.2040 os         1 QLX      -0.449000
     43 C18         11.6270    24.3750   -24.7860 c3         1 QLX       0.139600
     44 C17         10.2550    24.4860   -24.0800 c3         1 QLX       0.154600
     45 C16          9.3020    25.0620   -21.8890 c3         1 QLX       0.115600
     46 C15          8.8820    23.6390   -21.4060 c3         1 QLX       0.129600
     47 C14         11.0550    22.5450   -21.0350 c3         1 QLX       0.140600
     48 C13         11.9170    21.9550   -19.8960 c3         1 QLX       0.093000
     49 C11         10.2260    19.8270   -17.1500 c3         1 QLX      -0.174400
     50 C10          8.7770    20.2400   -16.8130 c3         1 QLX       0.171000
     51 C40          8.0120    19.1090   -16.1270 ca         1 QLX      -0.093300
     52 C45          8.3590    18.6890   -14.8270 ca         1 QLX      -0.097000
     53 C44          7.6470    17.6510   -14.2010 ca         1 QLX      -0.094500
     54 C43          6.5850    17.0120   -14.8660 ca         1 QLX      -0.004000
     55 C46          5.8480    15.9420   -14.1970 cc         1 QLX      -0.177000
     56 S1           5.2010    16.0420   -12.5890 ss         1 QLX      -0.045400
     57 C49          4.6610    14.3960   -12.8030 cc         1 QLX       0.420300
     58 N8           4.9690    13.8100   -13.9580 nd         1 QLX      -0.637000
     59 C47          5.6690    14.6960   -14.7650 cd         1 QLX       0.300300
     60 C48          6.1570    14.2230   -16.1090 c3         1 QLX      -0.121400
     61 C42          6.2290    17.4410   -16.1590 ca         1 QLX      -0.094500
     62 C41          6.9380    18.4790   -16.7870 ca         1 QLX      -0.097000
     63 O2           6.6200    22.1310   -16.5470 o          1 QLX      -0.601100
     64 N            7.2930    24.7970   -15.3570 n          1 QLX      -0.397800
     65 C            4.6670    25.2620   -18.2390 c3         1 QLX      -0.098100
     66 C50          7.1960    27.8950   -16.7850 cc         1 QLX       0.197300
     67 O8           6.5510    29.1090   -16.7510 os         1 QLX      -0.105700
     68 N9           7.5390    30.1520   -16.5920 nc         1 QLX      -0.360300
     69 C52          8.6890    29.5070   -16.5360 cd         1 QLX       0.284300
     70 C53          9.9830    30.2480   -16.3580 c3         1 QLX      -0.132400
     71 C51          8.5300    28.1170   -16.6540 cd         1 QLX      -0.228000
     72 H1           9.5840    21.7260   -15.5130 hn         1 QLX       0.329500
     73 H2           6.6570    22.8110   -13.5540 hc         1 QLX       0.068200
     74 H3           8.3450    22.6070   -13.0880 hc         1 QLX       0.068200
     75 H4           9.1430    23.7510   -15.1710 h1         1 QLX       0.073700
     76 H5          10.7830    20.1570   -19.5960 hn         1 QLX       0.306500
     77 H6           9.2850    24.6870   -11.9810 ho         1 QLX       0.444000
     78 H7           4.8180    27.3860   -18.1400 hc         1 QLX       0.052700
     79 H8           7.1830    26.5580   -14.1160 h1         1 QLX       0.068200
     80 H9           5.7920    25.4530   -13.9900 h1         1 QLX       0.068200
     81 H10          7.0230    24.7190   -12.0630 h1         1 QLX       0.056700
     82 H11         14.0720    27.4270   -24.1200 hn         1 QLX       0.329500
     83 H12          5.6750    26.6850   -16.0560 hc         1 QLX       0.073700
     84 H13          6.8830    27.6820   -19.4840 hc         1 QLX       0.044033
     85 H14          7.0300    25.9230   -19.6770 hc         1 QLX       0.044033
     86 H15          5.6420    26.7820   -20.3600 hc         1 QLX       0.044033
     87 H17         11.4570    27.7810   -22.8610 ha         1 QLX       0.130500
     88 H18          8.2600    29.7290   -19.5750 ha         1 QLX       0.129000
     89 H19         10.3970    28.7770   -18.7760 ha         1 QLX       0.130500
     90 H20         10.9120    24.6880   -17.8990 hc         1 QLX       0.058700
     91 H21         10.0970    25.9850   -18.7860 hc         1 QLX       0.058700
     92 H22         11.4700    25.1340   -19.5130 hc         1 QLX       0.058700
     93 H23         12.1510    26.2080   -14.5370 hc         1 QLX       0.052033
     94 H24         10.7450    25.7460   -15.5050 hc         1 QLX       0.052033
     95 H25         12.2300    24.7850   -15.5890 hc         1 QLX       0.052033
     96 H26         14.6480    32.1460   -16.8960 hc         1 QLX       0.064700
     97 H27         13.3190    30.9920   -16.7140 hc         1 QLX       0.064700
     98 H28         14.9270    30.6180   -16.0450 hc         1 QLX       0.064700
     99 H29         15.2180    26.9850   -20.2080 h1         1 QLX       0.091700
    100 H30         16.6010    28.1330   -21.9000 hc         1 QLX       0.084700
    101 H31         15.1120    28.7210   -22.7150 hc         1 QLX       0.084700
    102 H32         14.4010    24.5630   -24.4180 h1         1 QLX       0.052200
    103 H33         15.4350    25.4420   -25.5550 h1         1 QLX       0.052200
    104 H34         13.3340    24.9360   -26.7060 h1         1 QLX       0.053700
    105 H35         13.4380    26.6820   -26.4370 h1         1 QLX       0.053700
    106 H36         11.5150    23.7190   -25.6600 h1         1 QLX       0.028700
    107 H37         12.3450    23.9060   -24.1010 h1         1 QLX       0.028700
    108 H38          9.5830    25.1260   -24.6670 h1         1 QLX       0.047700
    109 H39          9.8160    23.4820   -24.0340 h1         1 QLX       0.047700
    110 H40          9.5100    25.6820   -21.0090 h1         1 QLX       0.055700
    111 H41          8.4540    25.5260   -22.4100 h1         1 QLX       0.055700
    112 H42          7.9130    23.7400   -20.9000 h1         1 QLX       0.048700
    113 H43          8.7230    22.9640   -22.2560 h1         1 QLX       0.048700
    114 H44         10.8230    21.7550   -21.7620 h1         1 QLX       0.036700
    115 H45         11.6470    23.3160   -21.5400 h1         1 QLX       0.036700
    116 H46         12.8190    21.5050   -20.3320 h1         1 QLX       0.077700
    117 H47         12.2440    22.7750   -19.2440 h1         1 QLX       0.077700
    118 H48         10.1750    18.9970   -17.8650 hc         1 QLX       0.072200
    119 H49         10.7240    19.4970   -16.2310 hc         1 QLX       0.072200
    120 H50          8.2770    20.4700   -17.7650 h1         1 QLX       0.082700
    121 H51          9.1780    19.1680   -14.2960 ha         1 QLX       0.113000
    122 H52          7.9270    17.3380   -13.1980 ha         1 QLX       0.119000
    123 H53          4.1140    13.9160   -12.0000 h5         1 QLX       0.054100
    124 H54          6.2530    13.1310   -16.1360 hc         1 QLX       0.052700
    125 H55          5.4620    14.5160   -16.9040 hc         1 QLX       0.052700
    126 H56          7.1420    14.6440   -16.3440 hc         1 QLX       0.052700
    127 H57          5.3930    16.9770   -16.6770 ha         1 QLX       0.119000
    128 H58          6.6470    18.7970   -17.7850 ha         1 QLX       0.113000
    129 H59          4.0770    25.1520   -17.3210 hc         1 QLX       0.044033
    130 H60          3.9710    25.2980   -19.0850 hc         1 QLX       0.044033
    131 H61          5.2940    24.3700   -18.3540 hc         1 QLX       0.044033
    132 H62         10.1800    30.9040   -17.2140 hc         1 QLX       0.055367
    133 H63          9.9590    30.8680   -15.4540 hc         1 QLX       0.055367
    134 H64         10.8250    29.5540   -16.2650 hc         1 QLX       0.055367
    135 H65          9.3160    27.3730   -16.6290 ha         1 QLX       0.164000
    136 C4           7.2750    25.3870   -16.6380 c          1 QLX       0.615100
    137 C2           6.3240    26.7420   -19.5020 c3         1 QLX      -0.098100
    138 C12         11.0300    20.9830   -17.7430 c          1 QLX       0.607100
    139 O            7.9920    24.9360   -17.5190 o          1 QLX      -0.593100
    140 H16          9.3040    28.7210   -23.6320 ha         1 QLX       0.129000
    141 Cl           7.1080    29.9320   -22.2060 cl         1 QLX      -0.205000
@<TRIPOS>BOND
     1     1     5 1   
     2     1    50 1   
     3     1    72 1   
     4     2     3 1   
     5     2    10 1   
     6     2    73 1   
     7     2    74 1   
     8     3     5 1   
     9     3    64 1   
    10     3    75 1   
    11     4    48 1   
    12     4    76 1   
    13     4   138 1   
    14     5    63 2   
    15     6    10 1   
    16     6    77 1   
    17     7    13 1   
    18     7    65 1   
    19     7    78 1   
    20     7   137 1   
    21     8    44 1   
    22     8    45 1   
    23     9    10 1   
    24     9    64 1   
    25     9    79 1   
    26     9    80 1   
    27    10    81 1   
    28    11    38 1   
    29    11    40 1   
    30    11    82 1   
    31    12    46 1   
    32    12    47 1   
    33    13    66 1   
    34    13    83 1   
    35    13   136 1   
    36    14   138 2   
    37    15    22 2   
    38    15    36 1   
    39    16    17 ar  
    40    16    19 ar  
    41    16   141 1   
    42    17    18 ar  
    43    17   140 1   
    44    18    21 ar  
    45    18    87 1   
    46    19    20 ar  
    47    19    88 1   
    48    20    21 ar  
    49    20    89 1   
    50    21    22 1   
    51    22    23 1   
    52    23    24 1   
    53    23    29 2   
    54    24    25 1   
    55    24    26 2   
    56    25    90 1   
    57    25    91 1   
    58    25    92 1   
    59    26    27 1   
    60    26    28 1   
    61    27    93 1   
    62    27    94 1   
    63    27    95 1   
    64    28    29 1   
    65    29    30 1   
    66    30    31 1   
    67    30    34 1   
    68    31    32 2   
    69    31    36 1   
    70    32    33 1   
    71    33    34 2   
    72    34    35 1   
    73    35    96 1   
    74    35    97 1   
    75    35    98 1   
    76    36    37 1   
    77    36    99 1   
    78    37    38 1   
    79    37   100 1   
    80    37   101 1   
    81    38    39 2   
    82    40    41 1   
    83    40   102 1   
    84    40   103 1   
    85    41    42 1   
    86    41   104 1   
    87    41   105 1   
    88    42    43 1   
    89    43    44 1   
    90    43   106 1   
    91    43   107 1   
    92    44   108 1   
    93    44   109 1   
    94    45    46 1   
    95    45   110 1   
    96    45   111 1   
    97    46   112 1   
    98    46   113 1   
    99    47    48 1   
   100    47   114 1   
   101    47   115 1   
   102    48   116 1   
   103    48   117 1   
   104    49    50 1   
   105    49   118 1   
   106    49   119 1   
   107    49   138 1   
   108    50    51 1   
   109    50   120 1   
   110    51    52 ar  
   111    51    62 ar  
   112    52    53 ar  
   113    52   121 1   
   114    53    54 ar  
   115    53   122 1   
   116    54    55 1   
   117    54    61 ar  
   118    55    56 1   
   119    55    59 2   
   120    56    57 1   
   121    57    58 2   
   122    57   123 1   
   123    58    59 1   
   124    59    60 1   
   125    60   124 1   
   126    60   125 1   
   127    60   126 1   
   128    61    62 ar  
   129    61   127 1   
   130    62   128 1   
   131    64   136 1   
   132    65   129 1   
   133    65   130 1   
   134    65   131 1   
   135    66    67 1   
   136    66    71 2   
   137    67    68 1   
   138    68    69 2   
   139    69    70 1   
   140    69    71 1   
   141    70   132 1   
   142    70   133 1   
   143    70   134 1   
   144    71   135 1   
   145    84   137 1   
   146    85   137 1   
   147    86   137 1   
   148   136   139 2   
@<TRIPOS>SUBSTRUCTURE
     1 QLX         1 TEMP              0 ****  ****    0 ROOT
