@<TRIPOS>MOLECULE
QLX
  141   148     1     0     0
SMALL
abcg2


@<TRIPOS>ATOM
      1 N1           8.7540    22.2480   -16.2510 ns         1 QLX      -0.496900
      2 C7           6.2710    23.0030   -14.1410 c5         1 QLX      -0.122400
      3 C8           7.1230    23.7020   -15.2140 c5         1 QLX       0.040700
      4 N2          11.1380    22.8030   -18.9830 ns         1 QLX      -0.484900
      5 C9           7.4970    22.7190   -16.3190 c          1 QLX       0.606100
      6 O1           5.9580    25.0020   -12.7560 oh         1 QLX      -0.657000
      7 C1           5.4840    26.7000   -18.6330 c3         1 QLX      -0.036700
      8 O5           9.1300    25.3190   -23.4620 os         1 QLX      -0.457000
      9 C5           5.0060    24.8660   -14.9300 c5         1 QLX       0.113000
     10 C6           5.3190    24.0950   -13.6580 c5         1 QLX       0.150300
     11 N3          13.5000    24.2950   -23.4720 ns         1 QLX      -0.491900
     12 O4           9.2110    24.4870   -20.4180 os         1 QLX      -0.450000
     13 C3           5.7880    26.7440   -17.1020 c3         1 QLX      -0.168000
     14 O3          11.6580    23.4380   -16.8670 o          1 QLX      -0.626100
     15 N4          13.3300    27.2260   -20.8310 n2         1 QLX      -0.584900
     16 C37          9.2880    30.0120   -19.9310 ca         1 QLX       0.135000
     17 C36          9.4430    28.9450   -20.8070 ca         1 QLX      -0.113500
     18 C35         10.6000    28.1830   -20.7410 ca         1 QLX      -0.064500
     19 C38         10.2700    30.3350   -19.0060 ca         1 QLX      -0.113500
     20 C39         11.4120    29.5520   -18.9370 ca         1 QLX      -0.064500
     21 C34         11.5900    28.4680   -19.8000 ca         1 QLX      -0.134900
     22 C24         12.8360    27.6620   -19.7300 ce         1 QLX       0.556500
     23 C25         13.4470    27.4800   -18.3960 cc         1 QLX      -0.204900
     24 C29         12.7510    27.1580   -17.1790 cc         1 QLX      -0.051300
     25 C30         11.2790    26.9010   -17.0320 c3         1 QLX      -0.039800
     26 C27         13.5910    27.0910   -16.1000 cd         1 QLX      -0.197300
     27 C28         13.2270    26.7710   -14.6860 c3         1 QLX      -0.020800
     28 S           15.2340    27.4250   -16.5310 ss         1 QLX       0.233000
     29 C26         14.7970    27.6620   -18.1780 cd         1 QLX      -0.126200
     30 N5          15.7290    27.9660   -19.1750 na         1 QLX      -0.263800
     31 C33         15.6850    27.4310   -20.4440 cc         1 QLX       0.394800
     32 N7          16.6450    27.9310   -21.1680 nd         1 QLX      -0.346000
     33 N6          17.3530    28.8170   -20.3680 nd         1 QLX      -0.356000
     34 C31         16.7980    28.8370   -19.1830 cc         1 QLX       0.415800
     35 C32         17.2300    29.6640   -18.0310 c3         1 QLX      -0.127400
     36 C23         14.5960    26.4780   -20.8110 c3         1 QLX       0.106200
     37 C22         14.8510    25.8300   -22.1670 c3         1 QLX      -0.135400
     38 C21         14.1540    24.4920   -22.3190 c          1 QLX       0.595100
     39 O7          14.2400    23.6240   -21.4460 o          1 QLX      -0.635100
     40 C20         12.9420    23.0060   -23.8550 c3         1 QLX       0.077000
     41 C19         12.2330    23.1100   -25.1940 c3         1 QLX       0.137600
     42 O6          11.1070    23.9780   -25.1590 os         1 QLX      -0.449000
     43 C18          9.9250    23.3580   -24.6640 c3         1 QLX       0.139600
     44 C17          8.8410    24.3970   -24.5130 c3         1 QLX       0.154600
     45 C16          8.1330    25.4080   -22.4450 c3         1 QLX       0.115600
     46 C15          8.2000    24.3030   -21.4010 c3         1 QLX       0.129600
     47 C14         10.5440    24.2570   -20.8530 c3         1 QLX       0.140600
     48 C13         11.4300    24.0670   -19.6420 c3         1 QLX       0.093000
     49 C11         10.7660    21.2280   -17.1920 c3         1 QLX      -0.174400
     50 C10          9.2300    21.1740   -17.1080 c3         1 QLX       0.171000
     51 C40          8.7630    19.8080   -16.6430 ca         1 QLX      -0.093300
     52 C45          8.6020    19.5150   -15.2900 ca         1 QLX      -0.097000
     53 C44          8.2060    18.2500   -14.8830 ca         1 QLX      -0.094500
     54 C43          7.9560    17.2390   -15.8180 ca         1 QLX      -0.004000
     55 C46          7.5220    15.9060   -15.3870 cc         1 QLX      -0.177000
     56 S1           6.3400    15.7160   -14.1280 ss         1 QLX      -0.045400
     57 C49          6.4530    14.0080   -14.2970 cc         1 QLX       0.420300
     58 N8           7.2940    13.6050   -15.2050 nd         1 QLX      -0.637000
     59 C47          7.9100    14.6660   -15.8360 cd         1 QLX       0.300300
     60 C48          8.9320    14.3800   -16.8890 c3         1 QLX      -0.121400
     61 C42          8.1100    17.5410   -17.1760 ca         1 QLX      -0.094500
     62 C41          8.5120    18.8070   -17.5780 ca         1 QLX      -0.097000
     63 O2           6.6770    22.3370   -17.1490 o          1 QLX      -0.601100
     64 N            6.2570    24.7770   -15.6990 n          1 QLX      -0.397800
     65 C            4.9440    25.3240   -19.0210 c3         1 QLX      -0.098100
     66 C50          6.3560    28.0540   -16.6700 cc         1 QLX       0.197300
     67 O8           5.4820    29.0790   -16.5880 os         1 QLX      -0.105700
     68 N9           6.1730    30.2350   -16.1740 nc         1 QLX      -0.360300
     69 C52          7.4220    29.8690   -16.0280 cd         1 QLX       0.284300
     70 C53          8.4560    30.8430   -15.5780 c3         1 QLX      -0.132400
     71 C51          7.5950    28.4900   -16.3340 cd         1 QLX      -0.228000
     72 H1           9.3770    22.6210   -15.5520 hn         1 QLX       0.329500
     73 H2           5.6910    22.1970   -14.5940 hc         1 QLX       0.068200
     74 H3           6.8770    22.5870   -13.3390 hc         1 QLX       0.068200
     75 H4           8.0270    24.1340   -14.7810 h1         1 QLX       0.073700
     76 H5          10.8410    22.0350   -19.5650 hn         1 QLX       0.306500
     77 H6           6.2610    24.5030   -11.9870 ho         1 QLX       0.444000
     78 H7           4.6800    27.4290   -18.7710 hc         1 QLX       0.052700
     79 H8           4.7460    25.8960   -14.7030 h1         1 QLX       0.068200
     80 H9           4.1830    24.3960   -15.4730 h1         1 QLX       0.068200
     81 H10          4.4130    23.6830   -13.2060 h1         1 QLX       0.056700
     82 H11         13.4720    25.0440   -24.1470 hn         1 QLX       0.329500
     83 H12          4.8210    26.6440   -16.6130 hc         1 QLX       0.073700
     84 H13          7.0100    28.1190   -19.2500 hc         1 QLX       0.044033
     85 H14          7.4880    26.4320   -19.4310 hc         1 QLX       0.044033
     86 H15          6.3310    27.1540   -20.5580 hc         1 QLX       0.044033
     87 H17         10.7300    27.3480   -21.4140 ha         1 QLX       0.130500
     88 H18         10.1430    31.1840   -18.3510 ha         1 QLX       0.129000
     89 H19         12.1740    29.7930   -18.2080 ha         1 QLX       0.130500
     90 H20         11.1070    25.9570   -16.5140 hc         1 QLX       0.058700
     91 H21         10.8110    27.6980   -16.4500 hc         1 QLX       0.058700
     92 H22         10.7700    26.8530   -17.9900 hc         1 QLX       0.058700
     93 H23         14.0820    26.8700   -14.0180 hc         1 QLX       0.052033
     94 H24         12.4380    27.4380   -14.3310 hc         1 QLX       0.052033
     95 H25         12.8520    25.7470   -14.6080 hc         1 QLX       0.052033
     96 H26         17.9860    30.3690   -18.3730 hc         1 QLX       0.064700
     97 H27         16.3890    30.2170   -17.6100 hc         1 QLX       0.064700
     98 H28         17.6610    29.0500   -17.2380 hc         1 QLX       0.064700
     99 H29         14.5630    25.6980   -20.0400 h1         1 QLX       0.091700
    100 H30         15.9180    25.6190   -22.2660 hc         1 QLX       0.084700
    101 H31         14.5780    26.5240   -22.9610 hc         1 QLX       0.084700
    102 H32         12.2580    22.6610   -23.0780 h1         1 QLX       0.052200
    103 H33         13.7410    22.2630   -23.9340 h1         1 QLX       0.052200
    104 H34         11.9370    22.1080   -25.5230 h1         1 QLX       0.053700
    105 H35         12.9140    23.5240   -25.9410 h1         1 QLX       0.053700
    106 H36          9.5900    22.5880   -25.3720 h1         1 QLX       0.028700
    107 H37         10.1120    22.8760   -23.7000 h1         1 QLX       0.028700
    108 H38          8.7440    24.9590   -25.4480 h1         1 QLX       0.047700
    109 H39          7.8940    23.8840   -24.3270 h1         1 QLX       0.047700
    110 H40          8.2810    26.3700   -21.9550 h1         1 QLX       0.055700
    111 H41          7.1350    25.4080   -22.8980 h1         1 QLX       0.055700
    112 H42          7.2590    24.2890   -20.8510 h1         1 QLX       0.048700
    113 H43          8.3240    23.3280   -21.8880 h1         1 QLX       0.048700
    114 H44         10.5770    23.3650   -21.4890 h1         1 QLX       0.036700
    115 H45         10.9180    25.0950   -21.4470 h1         1 QLX       0.036700
    116 H46         12.4720    24.1010   -19.9630 h1         1 QLX       0.077700
    117 H47         11.2670    24.8700   -18.9260 h1         1 QLX       0.077700
    118 H48         11.0950    20.4440   -17.8750 hc         1 QLX       0.072200
    119 H49         11.1970    21.0340   -16.2100 hc         1 QLX       0.072200
    120 H50          8.8200    21.3510   -18.1020 h1         1 QLX       0.082700
    121 H51          8.7830    20.2810   -14.5480 ha         1 QLX       0.113000
    122 H52          8.0980    18.0400   -13.8260 ha         1 QLX       0.119000
    123 H53          5.8620    13.3460   -13.6790 h5         1 QLX       0.054100
    124 H54          9.5170    13.5030   -16.6080 hc         1 QLX       0.052700
    125 H55          8.4570    14.1670   -17.8510 hc         1 QLX       0.052700
    126 H56          9.6060    15.2240   -17.0290 hc         1 QLX       0.052700
    127 H57          7.8870    16.7910   -17.9220 ha         1 QLX       0.119000
    128 H58          8.6150    19.0250   -18.6350 ha         1 QLX       0.113000
    129 H59          4.0870    25.0440   -18.4050 hc         1 QLX       0.044033
    130 H60          4.6270    25.3260   -20.0650 hc         1 QLX       0.044033
    131 H61          5.7100    24.5540   -18.9070 hc         1 QLX       0.044033
    132 H62          8.0020    31.7990   -15.3260 hc         1 QLX       0.055367
    133 H63          8.9830    30.4550   -14.7050 hc         1 QLX       0.055367
    134 H64          9.1960    31.0000   -16.3630 hc         1 QLX       0.055367
    135 H65          8.5030    27.9160   -16.3120 ha         1 QLX       0.164000
    136 C4           6.7120    25.6160   -16.6480 c          1 QLX       0.615100
    137 C2           6.6530    27.1250   -19.5160 c3         1 QLX      -0.098100
    138 C12         11.2470    22.5890   -17.6630 c          1 QLX       0.607100
    139 O            7.8370    25.4740   -17.1340 o          1 QLX      -0.593100
    140 H16          8.6680    28.7110   -21.5220 ha         1 QLX       0.129000
    141 CL           7.8210    30.9600   -19.9810 cl         1 QLX      -0.205000
@<TRIPOS>BOND
     1     1     5 1   
     2     1    50 1   
     3     1    72 1   
     4     2     3 1   
     5     2    10 1   
     6     2    73 1   
     7     2    74 1   
     8     3     5 1   
     9     3    64 1   
    10     3    75 1   
    11     4    48 1   
    12     4    76 1   
    13     4   138 1   
    14     5    63 2   
    15     6    10 1   
    16     6    77 1   
    17     7    13 1   
    18     7    65 1   
    19     7    78 1   
    20     7   137 1   
    21     8    44 1   
    22     8    45 1   
    23     9    10 1   
    24     9    64 1   
    25     9    79 1   
    26     9    80 1   
    27    10    81 1   
    28    11    38 1   
    29    11    40 1   
    30    11    82 1   
    31    12    46 1   
    32    12    47 1   
    33    13    66 1   
    34    13    83 1   
    35    13   136 1   
    36    14   138 2   
    37    15    22 2   
    38    15    36 1   
    39    16    17 ar  
    40    16    19 ar  
    41    16   141 1   
    42    17    18 ar  
    43    17   140 1   
    44    18    21 ar  
    45    18    87 1   
    46    19    20 ar  
    47    19    88 1   
    48    20    21 ar  
    49    20    89 1   
    50    21    22 1   
    51    22    23 1   
    52    23    24 1   
    53    23    29 2   
    54    24    25 1   
    55    24    26 2   
    56    25    90 1   
    57    25    91 1   
    58    25    92 1   
    59    26    27 1   
    60    26    28 1   
    61    27    93 1   
    62    27    94 1   
    63    27    95 1   
    64    28    29 1   
    65    29    30 1   
    66    30    31 1   
    67    30    34 1   
    68    31    32 2   
    69    31    36 1   
    70    32    33 1   
    71    33    34 2   
    72    34    35 1   
    73    35    96 1   
    74    35    97 1   
    75    35    98 1   
    76    36    37 1   
    77    36    99 1   
    78    37    38 1   
    79    37   100 1   
    80    37   101 1   
    81    38    39 2   
    82    40    41 1   
    83    40   102 1   
    84    40   103 1   
    85    41    42 1   
    86    41   104 1   
    87    41   105 1   
    88    42    43 1   
    89    43    44 1   
    90    43   106 1   
    91    43   107 1   
    92    44   108 1   
    93    44   109 1   
    94    45    46 1   
    95    45   110 1   
    96    45   111 1   
    97    46   112 1   
    98    46   113 1   
    99    47    48 1   
   100    47   114 1   
   101    47   115 1   
   102    48   116 1   
   103    48   117 1   
   104    49    50 1   
   105    49   118 1   
   106    49   119 1   
   107    49   138 1   
   108    50    51 1   
   109    50   120 1   
   110    51    52 ar  
   111    51    62 ar  
   112    52    53 ar  
   113    52   121 1   
   114    53    54 ar  
   115    53   122 1   
   116    54    55 1   
   117    54    61 ar  
   118    55    56 1   
   119    55    59 2   
   120    56    57 1   
   121    57    58 2   
   122    57   123 1   
   123    58    59 1   
   124    59    60 1   
   125    60   124 1   
   126    60   125 1   
   127    60   126 1   
   128    61    62 ar  
   129    61   127 1   
   130    62   128 1   
   131    64   136 1   
   132    65   129 1   
   133    65   130 1   
   134    65   131 1   
   135    66    67 1   
   136    66    71 2   
   137    67    68 1   
   138    68    69 2   
   139    69    70 1   
   140    69    71 1   
   141    70   132 1   
   142    70   133 1   
   143    70   134 1   
   144    71   135 1   
   145    84   137 1   
   146    85   137 1   
   147    86   137 1   
   148   136   139 2   
@<TRIPOS>SUBSTRUCTURE
     1 QLX         1 TEMP              0 ****  ****    0 ROOT
