@<TRIPOS>MOLECULE
QLZ
   46    47     1     0     0
SMALL
abcg2


@<TRIPOS>ATOM
      1 N1           3.6430    -1.8080     1.5450 nb         1 QLZ      -0.344000
      2 C2           4.6210    -1.2160     0.8620 ca         1 QLZ       0.425900
      3 N3           4.5460    -0.0430     0.2220 nb         1 QLZ      -0.294000
      4 C4           3.3870     0.6010     0.2880 ca         1 QLZ       0.220300
      5 C5           2.2940     0.0940     0.9860 ca         1 QLZ      -0.215000
      6 C6           2.4810    -1.1690     1.6110 ca         1 QLZ       0.445900
      7 CAA          2.6430     2.9170    -2.7030 c3         1 QLZ      -0.088100
      8 CAB         -5.5310     0.7000    -3.0300 c3         1 QLZ       0.148900
      9 CAC         -2.3810    -2.1260     2.5570 c3         1 QLZ       0.144900
     10 NAD          5.8110    -1.8460     0.8330 nv         1 QLZ      -1.062900
     11 NAE          1.4820    -1.7500     2.2840 nv         1 QLZ      -1.081900
     12 CAF         -0.0590     1.2210     1.2260 c1         1 QLZ      -0.151100
     13 CAG          1.0430     0.7490     1.0840 cg         1 QLZ      -0.087000
     14 CAH         -4.3140    -0.5270    -0.8140 ca         1 QLZ      -0.160000
     15 CAI         -3.6740    -1.0840     0.2940 ca         1 QLZ      -0.159000
     16 CAJ         -3.0660     1.4920    -0.4850 ca         1 QLZ      -0.104000
     17 CAK          2.7400     1.6340    -1.8910 c3         1 QLZ      -0.071400
     18 CAL         -1.4060     1.7590     1.3750 c3         1 QLZ       0.075000
     19 CAM          3.2780     1.8820    -0.4780 c3         1 QLZ      -0.136700
     20 CAT         -4.0140     0.7660    -1.2110 ca         1 QLZ       0.109100
     21 CAU         -2.4290     0.9500     0.6140 ca         1 QLZ      -0.072300
     22 CAW         -2.7360    -0.3600     1.0120 ca         1 QLZ       0.109100
     23 HAA          1.9760     3.6370    -2.2250 hc         1 QLZ       0.031367
     24 HAAA         3.6190     3.3930    -2.8100 hc         1 QLZ       0.031367
     25 HAAB         2.2570     2.7220    -3.7040 hc         1 QLZ       0.031367
     26 HAB         -6.4010     0.4100    -2.4340 h1         1 QLZ       0.038700
     27 HABA        -5.8570     1.3770    -3.8170 h1         1 QLZ       0.038700
     28 HABB        -5.1100    -0.1970    -3.4940 h1         1 QLZ       0.038700
     29 HAC         -3.4300    -2.2160     2.8510 h1         1 QLZ       0.039033
     30 HACA        -2.1590    -2.8900     1.8070 h1         1 QLZ       0.039033
     31 HACB        -1.7590    -2.3020     3.4310 h1         1 QLZ       0.039033
     32 HNAD         5.8650    -2.8010     1.1400 hn         1 QLZ       0.494000
     33 HNAA         6.5130    -1.5280     0.1880 hn         1 QLZ       0.494000
     34 HNAE         1.6220    -2.6420     2.7240 hn         1 QLZ       0.504500
     35 HNAB         0.5760    -1.3170     2.3410 hn         1 QLZ       0.504500
     36 HAH         -5.0390    -1.1330    -1.3400 ha         1 QLZ       0.117000
     37 HAI         -3.9340    -2.0960     0.5720 ha         1 QLZ       0.115000
     38 HAJ         -2.8290     2.5050    -0.7910 ha         1 QLZ       0.130000
     39 HAK          1.7540     1.1660    -1.8230 hc         1 QLZ       0.046200
     40 HAKA         3.3900     0.9190    -2.4010 hc         1 QLZ       0.046200
     41 HAL         -1.6650     1.8030     2.4370 hc         1 QLZ       0.064200
     42 HALA        -1.4210     2.7900     1.0170 hc         1 QLZ       0.064200
     43 HAM          2.6180     2.5810     0.0410 hc         1 QLZ       0.060700
     44 HAMA         4.2660     2.3430    -0.5400 hc         1 QLZ       0.060700
     45 OAP         -4.5740     1.4000    -2.2650 os         1 QLZ      -0.340100
     46 OAQ         -2.0730    -0.8270     2.0950 os         1 QLZ      -0.345100
@<TRIPOS>BOND
     1     1     2 ar  
     2     1     6 ar  
     3     2     3 ar  
     4     2    10 1   
     5     3     4 ar  
     6     4     5 ar  
     7     4    19 1   
     8     5     6 ar  
     9     5    13 1   
    10     6    11 1   
    11     7    17 1   
    12     7    23 1   
    13     7    24 1   
    14     7    25 1   
    15     8    26 1   
    16     8    27 1   
    17     8    28 1   
    18     8    45 1   
    19     9    29 1   
    20     9    30 1   
    21     9    31 1   
    22     9    46 1   
    23    10    32 1   
    24    10    33 1   
    25    11    34 1   
    26    11    35 1   
    27    12    13 3   
    28    12    18 1   
    29    14    15 ar  
    30    14    20 ar  
    31    14    36 1   
    32    15    22 ar  
    33    15    37 1   
    34    16    20 ar  
    35    16    21 ar  
    36    16    38 1   
    37    17    19 1   
    38    17    39 1   
    39    17    40 1   
    40    18    21 1   
    41    18    41 1   
    42    18    42 1   
    43    19    43 1   
    44    19    44 1   
    45    20    45 1   
    46    21    22 ar  
    47    22    46 1   
@<TRIPOS>SUBSTRUCTURE
     1 QLZ         1 TEMP              0 ****  ****    0 ROOT
