@<TRIPOS>MOLECULE
QLZ
   46    47     1     0     0
SMALL
No Charge or Current Charge


@<TRIPOS>ATOM
      1 N1           4.8600    -0.5580     1.8080 nb         1 QLZ      -0.344000
      2 C2           4.9960    -0.7640     0.4970 ca         1 QLZ       0.425900
      3 N3           4.0810    -0.5940    -0.4630 nb         1 QLZ      -0.294000
      4 C4           2.8680    -0.1570    -0.0670 ca         1 QLZ       0.220300
      5 C5           2.5990     0.0990     1.3000 ca         1 QLZ      -0.215000
      6 C6           3.6590    -0.1240     2.2000 ca         1 QLZ       0.445900
      7 CAA         -0.2600    -0.8960    -2.3490 c3         1 QLZ      -0.088100
      8 CAB         -3.9500     3.7100    -2.7210 c3         1 QLZ       0.148900
      9 CAC         -2.7420    -2.4380     0.8480 c3         1 QLZ       0.144900
     10 NAD          6.2080    -1.2030     0.0940 nv         1 QLZ      -1.062900
     11 NAE          3.5480     0.0730     3.5400 nv         1 QLZ      -1.081900
     12 CAF          0.1840     0.9010     2.0530 c1         1 QLZ      -0.151100
     13 CAG          1.3000     0.5460     1.7350 cg         1 QLZ      -0.087000
     14 CAH         -3.5600     1.2000    -1.3050 ca         1 QLZ      -0.160000
     15 CAI         -3.3370     0.0080    -0.5930 ca         1 QLZ      -0.159000
     16 CAJ         -2.2710     2.4260     0.3520 ca         1 QLZ      -0.104000
     17 CAK          0.8080    -1.1190    -1.2610 c3         1 QLZ      -0.071400
     18 CAL         -1.2000     1.2880     2.3510 c3         1 QLZ       0.075000
     19 CAM          1.8320     0.0370    -1.1770 c3         1 QLZ      -0.136700
     20 CAT         -3.0230     2.4160    -0.8330 ca         1 QLZ       0.109100
     21 CAU         -2.0440     1.2380     1.0770 ca         1 QLZ      -0.072300
     22 CAW         -2.5760     0.0180     0.5990 ca         1 QLZ       0.109100
     23 HAA         -0.8100     0.0340    -2.1670 hc         1 QLZ       0.031367
     24 HAAA         0.2030    -0.8360    -3.3410 hc         1 QLZ       0.031367
     25 HAAB        -0.9790    -1.7240    -2.3540 hc         1 QLZ       0.031367
     26 HAB         -4.9870     3.3830    -2.5730 h1         1 QLZ       0.038700
     27 HABA        -3.9670     4.7490    -3.0740 h1         1 QLZ       0.038700
     28 HABB        -3.4920     3.0920    -3.5040 h1         1 QLZ       0.038700
     29 HAC         -3.8340    -2.4910     0.7570 h1         1 QLZ       0.039033
     30 HACA        -2.2930    -2.6610    -0.1280 h1         1 QLZ       0.039033
     31 HACB        -2.4220    -3.2130     1.5550 h1         1 QLZ       0.039033
     32 HNAD         6.8440    -1.5630     0.8010 hn         1 QLZ       0.494000
     33 HNAA         6.2940    -1.5950    -0.8400 hn         1 QLZ       0.494000
     34 HNAE         4.2520    -0.3460     4.1420 hn         1 QLZ       0.504500
     35 HNAB         2.6140     0.1740     3.9300 hn         1 QLZ       0.504500
     36 HAH         -4.1460     1.1580    -2.2190 ha         1 QLZ       0.117000
     37 HAI         -3.7600    -0.9120    -0.9840 ha         1 QLZ       0.115000
     38 HAJ         -1.8570     3.3670     0.7060 ha         1 QLZ       0.130000
     39 HAK          0.3040    -1.2390    -0.2950 hc         1 QLZ       0.046200
     40 HAKA         1.3370    -2.0590    -1.4620 hc         1 QLZ       0.046200
     41 HAL         -1.6070     0.6200     3.1190 hc         1 QLZ       0.064200
     42 HALA        -1.2030     2.2960     2.7840 hc         1 QLZ       0.064200
     43 HAM          1.2970     0.9830    -1.0260 hc         1 QLZ       0.060700
     44 HAMA         2.3330     0.1350    -2.1480 hc         1 QLZ       0.060700
     45 OAP         -3.2040     3.6150    -1.4940 os         1 QLZ      -0.340100
     46 OAQ         -2.3290    -1.1410     1.3130 os         1 QLZ      -0.345100
@<TRIPOS>BOND
     1     1     2 ar  
     2     1     6 ar  
     3     2     3 ar  
     4     2    10 1   
     5     3     4 ar  
     6     4     5 ar  
     7     4    19 1   
     8     5     6 ar  
     9     5    13 1   
    10     6    11 1   
    11     7    17 1   
    12     7    23 1   
    13     7    24 1   
    14     7    25 1   
    15     8    26 1   
    16     8    27 1   
    17     8    28 1   
    18     8    45 1   
    19     9    29 1   
    20     9    30 1   
    21     9    31 1   
    22     9    46 1   
    23    10    32 1   
    24    10    33 1   
    25    11    34 1   
    26    11    35 1   
    27    12    13 3   
    28    12    18 1   
    29    14    15 ar  
    30    14    20 ar  
    31    14    36 1   
    32    15    22 ar  
    33    15    37 1   
    34    16    20 ar  
    35    16    21 ar  
    36    16    38 1   
    37    17    19 1   
    38    17    39 1   
    39    17    40 1   
    40    18    21 1   
    41    18    41 1   
    42    18    42 1   
    43    19    43 1   
    44    19    44 1   
    45    20    45 1   
    46    21    22 ar  
    47    22    46 1   
@<TRIPOS>SUBSTRUCTURE
     1 QLZ         1 TEMP              0 ****  ****    0 ROOT
