@<TRIPOS>MOLECULE
QM1
   18    18     1     0     0
SMALL
abcg2


@<TRIPOS>ATOM
      1 C            2.3290     1.9100    -0.0790 ca         1 QM1      -0.220000
      2 O           -0.3930    -2.1110    -1.1040 o          1 QM1      -0.726500
      3 N            2.1910    -0.4340     0.3050 nb         1 QM1      -0.674000
      4 C1           0.9990     1.9140    -0.4730 ca         1 QM1      -0.133000
      5 C2           0.2590     0.7380    -0.4950 ca         1 QM1      -0.019300
      6 C3           0.9180    -0.4350    -0.0890 ca         1 QM1       0.333500
      7 C4           2.8790     0.7000     0.3020 ca         1 QM1       0.275900
      8 C5           0.2560    -1.8080    -0.0810 c          1 QM1       0.644500
      9 C6          -1.1880     0.7940    -0.8710 c3         1 QM1      -0.178100
     10 C7          -2.1480     0.7340     0.3370 c          1 QM1       0.726000
     11 O1           0.4740    -2.5270     0.9070 o          1 QM1      -0.726500
     12 O2          -1.7250     0.1780     1.3670 o          1 QM1      -0.742500
     13 O3          -3.2850     1.2150     0.1570 o          1 QM1      -0.742500
     14 H1           2.9190     2.8160    -0.0620 ha         1 QM1       0.065000
     15 H2           0.5350     2.8490    -0.7680 ha         1 QM1       0.079000
     16 H3           3.9140     0.6370     0.6250 h4         1 QM1      -0.039900
     17 H4          -1.3830     1.6930    -1.4600 hc         1 QM1       0.039200
     18 H5          -1.4260    -0.0610    -1.5070 hc         1 QM1       0.039200
@<TRIPOS>BOND
     1     1     4 ar  
     2     1     7 ar  
     3     1    14 1   
     4     2     8 1   
     5     3     6 ar  
     6     3     7 ar  
     7     4     5 ar  
     8     4    15 1   
     9     5     6 ar  
    10     5     9 1   
    11     6     8 1   
    12     7    16 1   
    13     8    11 1   
    14     9    10 1   
    15     9    17 1   
    16     9    18 1   
    17    10    12 1   
    18    10    13 1   
@<TRIPOS>SUBSTRUCTURE
     1 QM1         1 TEMP              0 ****  ****    0 ROOT
