@<TRIPOS>MOLECULE
QM1
   18    18     1     0     0
SMALL
No Charge or Current Charge


@<TRIPOS>ATOM
      1 C            2.2250     2.0020    -0.0910 ca         1 QM1      -0.220000
      2 O           -0.0410    -2.3820    -1.1340 o          1 QM1      -0.726500
      3 N            2.2830    -0.3720     0.3340 nb         1 QM1      -0.674000
      4 C1           0.8900     1.9260    -0.5100 ca         1 QM1      -0.133000
      5 C2           0.2380     0.6760    -0.5090 ca         1 QM1      -0.019300
      6 C3           0.9750    -0.4760    -0.0840 ca         1 QM1       0.333500
      7 C4           2.8790     0.8360     0.3250 ca         1 QM1       0.275900
      8 C5           0.3320    -1.8880    -0.0730 c          1 QM1       0.644500
      9 C6          -1.2400     0.6390    -0.9250 c3         1 QM1      -0.178100
     10 C7          -2.1260     0.8120     0.3170 c          1 QM1       0.726000
     11 O1           0.3430    -2.5380     0.9710 o          1 QM1      -0.726500
     12 O2          -2.4270    -0.1870     0.9520 o          1 QM1      -0.742500
     13 O3          -2.3810     1.9470     0.6900 o          1 QM1      -0.742500
     14 H1           2.7470     2.9540    -0.0800 ha         1 QM1       0.065000
     15 H2           0.3660     2.8280    -0.8190 ha         1 QM1       0.079000
     16 H3           3.9130     0.8660     0.6610 h4         1 QM1      -0.039900
     17 H4          -1.4030     1.4800    -1.6100 hc         1 QM1       0.039200
     18 H5          -1.4480    -0.3210    -1.4040 hc         1 QM1       0.039200
@<TRIPOS>BOND
     1     1     4 ar  
     2     1     7 ar  
     3     1    14 1   
     4     2     8 1   
     5     3     6 ar  
     6     3     7 ar  
     7     4     5 ar  
     8     4    15 1   
     9     5     6 ar  
    10     5     9 1   
    11     6     8 1   
    12     7    16 1   
    13     8    11 1   
    14     9    10 1   
    15     9    17 1   
    16     9    18 1   
    17    10    12 1   
    18    10    13 1   
@<TRIPOS>SUBSTRUCTURE
     1 QM1         1 TEMP              0 ****  ****    0 ROOT
