@<TRIPOS>MOLECULE
QM2
   36    39     1     0     0
SMALL
abcg2


@<TRIPOS>ATOM
      1 N1          59.9000     1.4170    -4.5370 nb         1 QM2      -0.202000
      2 C2          60.9530     1.6500    -3.7510 ca         1 QM2       0.251300
      3 C4          62.3130     0.4390    -5.3340 ca         1 QM2       0.130800
      4 C5          63.6430    -0.0040    -5.5860 cc         1 QM2      -0.288800
      5 C6          64.5280     0.3630    -4.6100 cd         1 QM2       0.002400
      6 O1          57.4220     3.8890    -0.7720 o          1 QM2      -0.712000
      7 C           58.6450     3.6500    -0.9020 c          1 QM2       0.728000
      8 O           59.5720     3.9560    -0.1160 o          1 QM2      -0.712000
      9 C1          59.0100     2.8890    -2.1950 c3         1 QM2      -0.071400
     10 S           60.7970     2.5500    -2.2560 ss         1 QM2      -0.283300
     11 C16         60.0980     0.7200    -5.6670 ca         1 QM2       0.127900
     12 N           61.2350     0.2160    -6.1180 nb         1 QM2      -0.193000
     13 S1          63.7420     1.2840    -3.3320 ss         1 QM2       0.119400
     14 C3          62.2100     1.1610    -4.1310 ca         1 QM2      -0.278000
     15 C7          65.9580     0.0720    -4.5340 ca         1 QM2      -0.014800
     16 C15         66.7460     0.5210    -3.4660 ca         1 QM2      -0.096500
     17 C14         68.0990     0.2310    -3.3980 ca         1 QM2      -0.108500
     18 C10         68.7280    -0.5210    -4.3960 ca         1 QM2      -0.049300
     19 C9          67.9410    -0.9670    -5.4640 ca         1 QM2      -0.108500
     20 C8          66.5880    -0.6790    -5.5350 ca         1 QM2      -0.096500
     21 C11         70.1700    -0.8550    -4.3610 cx         1 QM2      -0.083400
     22 C13         70.8860    -1.1160    -3.0530 cx         1 QM2      -0.124900
     23 C12         71.1910     0.1280    -3.8240 cx         1 QM2      -0.124900
     24 H1          63.9080    -0.5760    -6.4630 ha         1 QM2       0.206000
     25 H3          58.7270     3.4800    -3.0640 h1         1 QM2       0.062200
     26 H4          58.4670     1.9470    -2.2370 h1         1 QM2       0.062200
     27 H5          59.2150     0.5550    -6.2760 h5         1 QM2       0.037100
     28 H6          66.3010     1.1050    -2.6690 ha         1 QM2       0.119000
     29 H7          68.6670     0.5990    -2.5530 ha         1 QM2       0.108000
     30 H8          68.4000    -1.5510    -6.2520 ha         1 QM2       0.108000
     31 H9          66.0190    -1.0470    -6.3780 ha         1 QM2       0.119000
     32 H10         70.4970    -1.4550    -5.2000 hc         1 QM2       0.076700
     33 H11         70.3050    -1.0230    -2.1450 hc         1 QM2       0.071700
     34 H12         71.6220    -1.9090    -3.0420 hc         1 QM2       0.071700
     35 H13         72.1360     0.1930    -4.3460 hc         1 QM2       0.071700
     36 H14         70.8130     1.0680    -3.4430 hc         1 QM2       0.071700
@<TRIPOS>BOND
     1     1     2 ar  
     2     1    11 ar  
     3     2    10 1   
     4     2    14 ar  
     5     3     4 1   
     6     3    12 ar  
     7     3    14 ar  
     8     4     5 2   
     9     4    24 1   
    10     5    13 1   
    11     5    15 1   
    12     6     7 1   
    13     7     8 1   
    14     7     9 1   
    15     9    10 1   
    16     9    25 1   
    17     9    26 1   
    18    11    12 ar  
    19    11    27 1   
    20    13    14 1   
    21    15    16 ar  
    22    15    20 ar  
    23    16    17 ar  
    24    16    28 1   
    25    17    18 ar  
    26    17    29 1   
    27    18    19 ar  
    28    18    21 1   
    29    19    20 ar  
    30    19    30 1   
    31    20    31 1   
    32    21    22 1   
    33    21    23 1   
    34    21    32 1   
    35    22    23 1   
    36    22    33 1   
    37    22    34 1   
    38    23    35 1   
    39    23    36 1   
@<TRIPOS>SUBSTRUCTURE
     1 QM2         1 TEMP              0 ****  ****    0 ROOT
