@<TRIPOS>MOLECULE
QM2
   36    39     1     0     0
SMALL
No Charge or Current Charge


@<TRIPOS>ATOM
      1 N1          59.8600     1.4420    -4.5690 nb         1 QM2      -0.202000
      2 C2          60.9260     1.6310    -3.7580 ca         1 QM2       0.251300
      3 C4          62.3040     0.4640    -5.3300 ca         1 QM2       0.130800
      4 C5          63.6450     0.0100    -5.5930 cc         1 QM2      -0.288800
      5 C6          64.5220     0.3580    -4.5700 cd         1 QM2       0.002400
      6 O1          58.1310     3.0930     0.0690 o          1 QM2      -0.712000
      7 C           58.5050     3.7310    -0.9060 c          1 QM2       0.728000
      8 O           58.5630     4.9530    -0.9330 o          1 QM2      -0.712000
      9 C1          58.9100     2.9540    -2.1740 c3         1 QM2      -0.071400
     10 S           60.7190     2.5130    -2.2110 ss         1 QM2      -0.283300
     11 C16         60.0820     0.7680    -5.7250 ca         1 QM2       0.127900
     12 N           61.2610     0.2620    -6.1540 nb         1 QM2      -0.193000
     13 S1          63.7090     1.2620    -3.2430 ss         1 QM2       0.119400
     14 C3          62.1840     1.1360    -4.1360 ca         1 QM2      -0.278000
     15 C7          65.9730     0.0500    -4.5140 ca         1 QM2      -0.014800
     16 C15         66.7620     0.4590    -3.4150 ca         1 QM2      -0.096500
     17 C14         68.1360     0.1680    -3.3620 ca         1 QM2      -0.108500
     18 C10         68.7630    -0.5400    -4.4060 ca         1 QM2      -0.049300
     19 C9          67.9830    -0.9500    -5.5020 ca         1 QM2      -0.108500
     20 C8          66.6090    -0.6600    -5.5570 ca         1 QM2      -0.096500
     21 C11         70.2370    -0.8670    -4.3750 cx         1 QM2      -0.083400
     22 C13         70.9600    -1.2190    -3.0930 cx         1 QM2      -0.124900
     23 C12         71.2630     0.0830    -3.7940 cx         1 QM2      -0.124900
     24 H1          63.9250    -0.5360    -6.4860 ha         1 QM2       0.206000
     25 H3          58.6690     3.5710    -3.0470 h1         1 QM2       0.062200
     26 H4          58.3120     2.0360    -2.2200 h1         1 QM2       0.062200
     27 H5          59.2210     0.6180    -6.3740 h5         1 QM2       0.037100
     28 H6          66.3240     1.0080    -2.5860 ha         1 QM2       0.119000
     29 H7          68.7080     0.5000    -2.4990 ha         1 QM2       0.108000
     30 H8          68.4410    -1.4980    -6.3220 ha         1 QM2       0.108000
     31 H9          66.0490    -0.9970    -6.4230 ha         1 QM2       0.119000
     32 H10         70.5530    -1.4170    -5.2590 hc         1 QM2       0.076700
     33 H11         70.4050    -1.1770    -2.1590 hc         1 QM2       0.071700
     34 H12         71.7100    -2.0040    -3.1370 hc         1 QM2       0.071700
     35 H13         72.2160     0.1710    -4.3090 hc         1 QM2       0.071700
     36 H14         70.9120     1.0030    -3.3340 hc         1 QM2       0.071700
@<TRIPOS>BOND
     1     1     2 ar  
     2     1    11 ar  
     3     2    10 1   
     4     2    14 ar  
     5     3     4 1   
     6     3    12 ar  
     7     3    14 ar  
     8     4     5 2   
     9     4    24 1   
    10     5    13 1   
    11     5    15 1   
    12     6     7 1   
    13     7     8 1   
    14     7     9 1   
    15     9    10 1   
    16     9    25 1   
    17     9    26 1   
    18    11    12 ar  
    19    11    27 1   
    20    13    14 1   
    21    15    16 ar  
    22    15    20 ar  
    23    16    17 ar  
    24    16    28 1   
    25    17    18 ar  
    26    17    29 1   
    27    18    19 ar  
    28    18    21 1   
    29    19    20 ar  
    30    19    30 1   
    31    20    31 1   
    32    21    22 1   
    33    21    23 1   
    34    21    32 1   
    35    22    23 1   
    36    22    33 1   
    37    22    34 1   
    38    23    35 1   
    39    23    36 1   
@<TRIPOS>SUBSTRUCTURE
     1 QM2         1 TEMP              0 ****  ****    0 ROOT
