@<TRIPOS>MOLECULE
QM3
   42    46     1     0     0
SMALL
abcg2


@<TRIPOS>ATOM
      1 N1         -17.1030     4.2140    25.7910 nb         1 QM3      -0.655000
      2 C4         -23.6470     7.3350    29.7880 c6         1 QM3       0.161600
      3 C5         -22.2680     7.2650    29.1730 c6         1 QM3      -0.104400
      4 C6         -21.9700     5.8200    28.7220 c5         1 QM3      -0.071700
      5 C7         -22.6130     5.4870    27.3570 c5         1 QM3      -0.162400
      6 C8         -21.4790     5.4290    26.3670 c          1 QM3       0.568000
      7 C10        -18.9990     5.5200    26.4560 ca         1 QM3      -0.087000
      8 C13        -17.1440     6.5850    25.3460 ca         1 QM3      -0.095000
      9 C15        -17.1260     8.9500    24.8730 ca         1 QM3      -0.110000
     10 C17        -19.0420     7.9820    26.0020 ca         1 QM3      -0.100000
     11 C20        -21.9070     3.5380    29.8070 ca         1 QM3      -0.057000
     12 C9         -20.4660     5.7370    28.4390 c          1 QM3       0.571000
     13 O          -23.7270     6.5140    30.9650 os         1 QM3      -0.341100
     14 C19        -22.3710     4.8540    29.8210 ca         1 QM3      -0.145300
     15 C3         -23.2120     5.2590    30.8620 ca         1 QM3       0.154100
     16 C2         -23.5550     4.3620    31.8780 ca         1 QM3      -0.132000
     17 C1         -23.0810     3.0630    31.8600 ca         1 QM3      -0.059000
     18 C          -22.2610     2.6580    30.8130 ca         1 QM3       0.092000
     19 CL         -21.6640     1.0110    30.7690 cl         1 QM3      -0.202000
     20 N          -20.2830     5.5510    27.0740 n          1 QM3      -0.223000
     21 C18        -18.4270     6.7110    25.9480 ca         1 QM3       0.005000
     22 C16        -18.3990     9.0740    25.4740 ca         1 QM3      -0.085000
     23 C14        -16.5080     7.7280    24.8110 ca         1 QM3      -0.077000
     24 C12        -16.5470     5.3020    25.3070 ca         1 QM3       0.371900
     25 C11        -18.3270     4.3310    26.3630 ca         1 QM3       0.351900
     26 H1         -23.8830     8.3430    30.1200 h1         1 QM3       0.062200
     27 H2         -24.4170     7.0070    29.0820 h1         1 QM3       0.062200
     28 H3         -21.5290     7.5730    29.9140 hc         1 QM3       0.074700
     29 H4         -22.2010     7.9450    28.3230 hc         1 QM3       0.074700
     30 H5         -23.3410     6.2310    27.0330 hc         1 QM3       0.092700
     31 H6         -23.1110     4.5170    27.3580 hc         1 QM3       0.092700
     32 H7         -16.6420     9.8270    24.4640 ha         1 QM3       0.119000
     33 H8         -20.0160     8.0920    26.4590 ha         1 QM3       0.114000
     34 H9         -21.2610     3.2020    29.0050 ha         1 QM3       0.129000
     35 H10        -24.2030     4.7020    32.6750 ha         1 QM3       0.136000
     36 H11        -23.3520     2.3700    32.6460 ha         1 QM3       0.135000
     37 H12        -18.8720    10.0460    25.5160 ha         1 QM3       0.116000
     38 H13        -15.5320     7.6200    24.3550 ha         1 QM3       0.120000
     39 H14        -15.5670     5.1970    24.8500 h4         1 QM3       0.023100
     40 H15        -18.7740     3.4260    26.7570 h4         1 QM3       0.028100
     41 O1         -21.5450     5.2910    25.1680 o          1 QM3      -0.480000
     42 O2         -19.5680     5.8520    29.2380 o          1 QM3      -0.468000
@<TRIPOS>BOND
     1     1    24 ar  
     2     1    25 ar  
     3     2     3 1   
     4     2    13 1   
     5     2    26 1   
     6     2    27 1   
     7     3     4 1   
     8     3    28 1   
     9     3    29 1   
    10     4     5 1   
    11     4    12 1   
    12     4    14 1   
    13     5     6 1   
    14     5    30 1   
    15     5    31 1   
    16     6    20 1   
    17     6    41 2   
    18     7    20 1   
    19     7    21 ar  
    20     7    25 ar  
    21     8    21 ar  
    22     8    23 ar  
    23     8    24 ar  
    24     9    22 ar  
    25     9    23 ar  
    26     9    32 1   
    27    10    21 ar  
    28    10    22 ar  
    29    10    33 1   
    30    11    14 ar  
    31    11    18 ar  
    32    11    34 1   
    33    12    20 1   
    34    12    42 2   
    35    13    15 1   
    36    14    15 ar  
    37    15    16 ar  
    38    16    17 ar  
    39    16    35 1   
    40    17    18 ar  
    41    17    36 1   
    42    18    19 1   
    43    22    37 1   
    44    23    38 1   
    45    24    39 1   
    46    25    40 1   
@<TRIPOS>SUBSTRUCTURE
     1 QM3         1 TEMP              0 ****  ****    0 ROOT
