@<TRIPOS>MOLECULE
QM3
   42    46     1     0     0
SMALL
No Charge or Current Charge


@<TRIPOS>ATOM
      1 N1         -16.9900     4.2810    25.7520 nb         1 QM3      -0.655000
      2 C4         -23.5350     7.4060    29.7390 c6         1 QM3       0.161600
      3 C5         -22.1020     7.2340    29.2020 c6         1 QM3      -0.104400
      4 C6         -21.8290     5.7530    28.8140 c5         1 QM3      -0.071700
      5 C7         -22.5080     5.3310    27.4650 c5         1 QM3      -0.162400
      6 C8         -21.4280     5.5920    26.4140 c          1 QM3       0.568000
      7 C10        -18.9450     5.5550    26.4490 ca         1 QM3      -0.087000
      8 C13        -17.1480     6.6530    25.2530 ca         1 QM3      -0.095000
      9 C15        -17.2350     9.0330    24.7420 ca         1 QM3      -0.110000
     10 C17        -19.0680     7.9820    25.9560 ca         1 QM3      -0.100000
     11 C20        -21.9920     3.4440    29.9360 ca         1 QM3      -0.057000
     12 C9         -20.3230     5.5220    28.5040 c          1 QM3       0.571000
     13 O          -23.7380     6.5750    30.8960 os         1 QM3      -0.341100
     14 C19        -22.3910     4.8020    29.8910 ca         1 QM3      -0.145300
     15 C3         -23.3070     5.2650    30.8720 ca         1 QM3       0.154100
     16 C2         -23.7850     4.4000    31.8700 ca         1 QM3      -0.132000
     17 C1         -23.3780     3.0570    31.9000 ca         1 QM3      -0.059000
     18 C          -22.4840     2.5820    30.9290 ca         1 QM3       0.092000
     19 Cl         -21.9690     0.9000    30.9610 cl         1 QM3      -0.202000
     20 N          -20.2230     5.5380    27.1140 n          1 QM3      -0.223000
     21 C18        -18.4050     6.7360    25.8890 ca         1 QM3       0.005000
     22 C16        -18.4830     9.1240    25.3820 ca         1 QM3      -0.085000
     23 C14        -16.5660     7.8000    24.6790 ca         1 QM3      -0.077000
     24 C12        -16.4840     5.4110    25.2080 ca         1 QM3       0.371900
     25 C11        -18.1940     4.3630    26.3610 ca         1 QM3       0.351900
     26 H1         -23.7180     8.4540    30.0160 h1         1 QM3       0.062200
     27 H2         -24.2660     7.1270    28.9680 h1         1 QM3       0.062200
     28 H3         -21.3930     7.5510    29.9800 hc         1 QM3       0.074700
     29 H4         -21.9390     7.8990    28.3430 hc         1 QM3       0.074700
     30 H5         -23.4460     5.8330    27.2040 hc         1 QM3       0.092700
     31 H6         -22.6920     4.2510    27.4440 hc         1 QM3       0.092700
     32 H7         -16.7860     9.9190    24.3000 ha         1 QM3       0.119000
     33 H8         -20.0310     8.0790    26.4490 ha         1 QM3       0.114000
     34 H9         -21.2960     3.0480    29.2010 ha         1 QM3       0.129000
     35 H10        -24.4780     4.7740    32.6190 ha         1 QM3       0.136000
     36 H11        -23.7520     2.3880    32.6700 ha         1 QM3       0.135000
     37 H12        -18.9970    10.0810    25.4340 ha         1 QM3       0.116000
     38 H13        -15.5970     7.7370    24.1860 ha         1 QM3       0.120000
     39 H14        -15.5120     5.3170    24.7240 h4         1 QM3       0.023100
     40 H15        -18.5790     3.4380    26.7890 h4         1 QM3       0.028100
     41 O1         -21.5580     5.9210    25.2440 o          1 QM3      -0.480000
     42 O2         -19.3900     5.3660    29.2810 o          1 QM3      -0.468000
@<TRIPOS>BOND
     1     1    24 ar  
     2     1    25 ar  
     3     2     3 1   
     4     2    13 1   
     5     2    26 1   
     6     2    27 1   
     7     3     4 1   
     8     3    28 1   
     9     3    29 1   
    10     4     5 1   
    11     4    12 1   
    12     4    14 1   
    13     5     6 1   
    14     5    30 1   
    15     5    31 1   
    16     6    20 1   
    17     6    41 2   
    18     7    20 1   
    19     7    21 ar  
    20     7    25 ar  
    21     8    21 ar  
    22     8    23 ar  
    23     8    24 ar  
    24     9    22 ar  
    25     9    23 ar  
    26     9    32 1   
    27    10    21 ar  
    28    10    22 ar  
    29    10    33 1   
    30    11    14 ar  
    31    11    18 ar  
    32    11    34 1   
    33    12    20 1   
    34    12    42 2   
    35    13    15 1   
    36    14    15 ar  
    37    15    16 ar  
    38    16    17 ar  
    39    16    35 1   
    40    17    18 ar  
    41    17    36 1   
    42    18    19 1   
    43    22    37 1   
    44    23    38 1   
    45    24    39 1   
    46    25    40 1   
@<TRIPOS>SUBSTRUCTURE
     1 QM3         1 TEMP              0 ****  ****    0 ROOT
