@<TRIPOS>MOLECULE
QM4
   52    55     1     0     0
SMALL
No Charge or Current Charge


@<TRIPOS>ATOM
      1 N            5.4270    -2.0660     0.8170 n7         1 QM4      -0.835400
      2 CA           5.8740    -0.6230     0.7750 c6         1 QM4       0.052500
      3 C            7.4230    -0.3880     0.4950 c          1 QM4       0.764000
      4 O            8.0030    -1.2200    -0.1960 o          1 QM4      -0.750000
      5 CB           5.0080     0.2210    -0.2130 c6         1 QM4      -0.067300
      6 CG           5.4990     0.0580    -1.6870 c          1 QM4       0.707000
      7 OD1          4.9130    -0.7410    -2.4040 o          1 QM4      -0.734000
      8 OD2          6.0650     1.0300    -2.1690 o          1 QM4      -0.734000
      9 OXT          8.0380     0.2790     1.3200 o          1 QM4      -0.750000
     10 CAB         -3.0560     0.7980     0.1450 ca         1 QM4      -0.030000
     11 CAF         -1.6350     0.8820     0.2700 ca         1 QM4      -0.020000
     12 CAK         -0.9940     1.5670     1.3320 ca         1 QM4      -0.136000
     13 CAL          3.9860    -2.1910     1.1210 c6         1 QM4       0.151800
     14 CAM          0.4070     1.6230     1.4170 ca         1 QM4      -0.075000
     15 CAP         -1.3920    -0.4170    -1.7950 ca         1 QM4      -0.081000
     16 CAQ         -5.8800     0.5850    -0.1800 ca         1 QM4      -0.060300
     17 CAS         -7.3900     0.4690    -0.3520 c3         1 QM4      -0.016100
     18 CAT         -3.9480     1.3820     1.0810 ca         1 QM4      -0.109000
     19 CAV          0.5890     0.3260    -0.6180 ca         1 QM4      -0.064000
     20 CAW         -5.0100    -0.0000    -1.1140 ca         1 QM4      -0.117000
     21 CAX         -3.6140     0.1020    -0.9580 ca         1 QM4      -0.032000
     22 CAY         -7.9600    -0.8030     0.3180 c3         1 QM4      -0.202400
     23 CAZ          1.2180     0.9870     0.4580 ca         1 QM4      -0.113600
     24 CBA         -0.8150     0.2650    -0.7100 ca         1 QM4      -0.058000
     25 CBC         -5.3390     1.2740     0.9170 ca         1 QM4      -0.118000
     26 CBD         -2.7830    -0.4980    -1.9170 ca         1 QM4      -0.128000
     27 CBE         -9.4820    -0.8660     0.1140 c          1 QM4       0.716000
     28 CBG          3.1020    -1.3870     0.1290 c6         1 QM4       0.062000
     29 NAI          3.5190     0.0450     0.0130 n          1 QM4      -0.341800
     30 OAO         -9.9080    -1.4160    -0.8900 o          1 QM4      -0.750500
     31 OAU          3.2470     2.0890     1.0440 o          1 QM4      -0.641100
     32 OBB        -10.1980    -0.3220     0.9410 o          1 QM4      -0.750500
     33 H1           5.6070    -2.4750    -0.1080 hn         1 QM4       0.431000
     34 H3           5.6900    -0.2130     1.7790 h1         1 QM4       0.011700
     35 H4           5.2580     1.2650     0.0130 h1         1 QM4       0.098700
     36 H7          -1.5530     2.0710     2.1100 ha         1 QM4       0.094000
     37 H8           3.6980    -3.2520     1.0940 h1         1 QM4       0.014200
     38 H9           3.8030    -1.8230     2.1410 h1         1 QM4       0.014200
     39 H10          0.8660     2.1590     2.2450 ha         1 QM4       0.114000
     40 H11         -0.7620    -0.8880    -2.5460 ha         1 QM4       0.114000
     41 H12         -7.8840     1.3520     0.0710 hc         1 QM4       0.044200
     42 H13         -7.6450     0.4600    -1.4190 hc         1 QM4       0.044200
     43 H14         -3.5950     1.9250     1.9490 ha         1 QM4       0.099000
     44 H15          1.1930    -0.1330    -1.3990 ha         1 QM4       0.155000
     45 H16         -5.4220    -0.5390    -1.9640 ha         1 QM4       0.103000
     46 H17         -7.4700    -1.6490    -0.1790 hc         1 QM4       0.023700
     47 H18         -7.7170    -0.7150     1.3840 hc         1 QM4       0.023700
     48 H19         -6.0010     1.7280     1.6510 ha         1 QM4       0.103000
     49 H20         -3.2140    -1.0300    -2.7620 ha         1 QM4       0.097000
     50 H21          3.1400    -1.8590    -0.8620 h1         1 QM4       0.031200
     51 H22          2.0660    -1.4630     0.4810 h1         1 QM4       0.031200
     52 CAC          2.7280     1.0840     0.5660 c          1 QM4       0.613700
@<TRIPOS>BOND
     1     1     2 1   
     2     1    13 1   
     3     1    33 1   
     4     2     3 1   
     5     2     5 1   
     6     2    34 1   
     7     3     4 1   
     8     3     9 1   
     9     5     6 1   
    10     5    29 1   
    11     5    35 1   
    12     6     7 1   
    13     6     8 1   
    14    10    11 ar  
    15    10    18 ar  
    16    10    21 ar  
    17    11    12 ar  
    18    11    24 ar  
    19    12    14 ar  
    20    12    36 1   
    21    13    28 1   
    22    13    37 1   
    23    13    38 1   
    24    14    23 ar  
    25    14    39 1   
    26    15    24 ar  
    27    15    26 ar  
    28    15    40 1   
    29    16    17 1   
    30    16    20 ar  
    31    16    25 ar  
    32    17    22 1   
    33    17    41 1   
    34    17    42 1   
    35    18    25 ar  
    36    18    43 1   
    37    19    23 ar  
    38    19    24 ar  
    39    19    44 1   
    40    20    21 ar  
    41    20    45 1   
    42    21    26 ar  
    43    22    27 1   
    44    22    46 1   
    45    22    47 1   
    46    23    52 1   
    47    25    48 1   
    48    26    49 1   
    49    27    30 1   
    50    27    32 1   
    51    28    29 1   
    52    28    50 1   
    53    28    51 1   
    54    29    52 1   
    55    31    52 2   
@<TRIPOS>SUBSTRUCTURE
     1 QM4         1 TEMP              0 ****  ****    0 ROOT
