@<TRIPOS>MOLECULE
QM4
   52    55     1     0     0
SMALL
abcg2


@<TRIPOS>ATOM
      1 N            5.2830    -2.0500     0.9300 n7         1 QM4      -0.835400
      2 CA           5.7340    -0.6720     0.9140 c6         1 QM4       0.052500
      3 C            7.2510    -0.5190     0.6910 c          1 QM4       0.764000
      4 O            7.9490    -1.5480     0.6780 o          1 QM4      -0.750000
      5 CB           4.9150     0.2040    -0.0370 c6         1 QM4      -0.067300
      6 CG           5.0870    -0.1420    -1.5440 c          1 QM4       0.707000
      7 OD1          4.1750     0.2410    -2.3010 o          1 QM4      -0.734000
      8 OD2          6.1250    -0.7440    -1.8690 o          1 QM4      -0.734000
      9 OXT          7.6620     0.6590     0.6160 o          1 QM4      -0.750000
     10 CAB         -2.9900     0.8290    -0.0150 ca         1 QM4      -0.030000
     11 CAF         -1.5520     0.9350     0.0960 ca         1 QM4      -0.020000
     12 CAK         -0.9130     1.5440     1.1930 ca         1 QM4      -0.136000
     13 CAL          3.8650    -2.1170     1.2180 c6         1 QM4       0.151800
     14 CAM          0.4560     1.6210     1.2710 ca         1 QM4      -0.075000
     15 CAP         -1.3480    -0.2190    -2.0660 ca         1 QM4      -0.081000
     16 CAQ         -5.8030     0.5500    -0.2930 ca         1 QM4      -0.060300
     17 CAS         -7.2890     0.3590    -0.3850 c3         1 QM4      -0.016100
     18 CAT         -3.8750     1.3280     0.9590 ca         1 QM4      -0.109000
     19 CAV          0.6600     0.4730    -0.8230 ca         1 QM4      -0.064000
     20 CAW         -4.9470     0.0680    -1.2580 ca         1 QM4      -0.117000
     21 CAX         -3.5500     0.1940    -1.1450 ca         1 QM4      -0.032000
     22 CAY         -7.7600    -0.7950     0.4960 c3         1 QM4      -0.202400
     23 CAZ          1.2600     1.0610     0.2670 ca         1 QM4      -0.113600
     24 CBA         -0.7400     0.4020    -0.9300 ca         1 QM4      -0.058000
     25 CBC         -5.2350     1.1920     0.8240 ca         1 QM4      -0.118000
     26 CBD         -2.6920    -0.3200    -2.1670 ca         1 QM4      -0.128000
     27 CBE         -9.2770    -1.0570     0.4900 c          1 QM4       0.716000
     28 CBG          2.9860    -1.2440     0.3250 c6         1 QM4       0.062000
     29 NAI          3.5000     0.1150     0.3000 n          1 QM4      -0.341800
     30 OAO         -9.9860    -0.3630    -0.2640 o          1 QM4      -0.750500
     31 OAU          3.2060     2.3600     0.3900 o          1 QM4      -0.641100
     32 OBB         -9.6720    -1.9630     1.2540 o          1 QM4      -0.750500
     33 H1           5.4820    -2.4700     0.0300 hn         1 QM4       0.431000
     34 H3           5.5470    -0.2780     1.9250 h1         1 QM4       0.011700
     35 H4           5.2280     1.2380     0.1010 h1         1 QM4       0.098700
     36 H7          -1.4950     1.9680     1.9990 ha         1 QM4       0.094000
     37 H8           3.5230    -3.1510     1.1400 h1         1 QM4       0.014200
     38 H9           3.7150    -1.8070     2.2580 h1         1 QM4       0.014200
     39 H10          0.9160     2.1000     2.1260 ha         1 QM4       0.114000
     40 H11         -0.7080    -0.6160    -2.8450 ha         1 QM4       0.114000
     41 H12         -7.7960     1.2790    -0.0830 hc         1 QM4       0.044200
     42 H13         -7.5730     0.1710    -1.4220 hc         1 QM4       0.044200
     43 H14         -3.4950     1.8300     1.8390 ha         1 QM4       0.099000
     44 H15          1.2690     0.0580    -1.6190 ha         1 QM4       0.155000
     45 H16         -5.3510    -0.4250    -2.1360 ha         1 QM4       0.103000
     46 H17         -7.2500    -1.7160     0.1910 hc         1 QM4       0.023700
     47 H18         -7.4430    -0.6250     1.5310 hc         1 QM4       0.023700
     48 H19         -5.8840     1.5910     1.5950 ha         1 QM4       0.103000
     49 H20         -3.1420    -0.7960    -3.0300 ha         1 QM4       0.097000
     50 H21          2.9600    -1.6520    -0.6920 h1         1 QM4       0.031200
     51 H22          1.9670    -1.2560     0.7080 h1         1 QM4       0.031200
     52 CAC          2.7460     1.2230     0.3250 c          1 QM4       0.613700
@<TRIPOS>BOND
     1     1     2 1   
     2     1    13 1   
     3     1    33 1   
     4     2     3 1   
     5     2     5 1   
     6     2    34 1   
     7     3     4 1   
     8     3     9 1   
     9     5     6 1   
    10     5    29 1   
    11     5    35 1   
    12     6     7 1   
    13     6     8 1   
    14    10    11 ar  
    15    10    18 ar  
    16    10    21 ar  
    17    11    12 ar  
    18    11    24 ar  
    19    12    14 ar  
    20    12    36 1   
    21    13    28 1   
    22    13    37 1   
    23    13    38 1   
    24    14    23 ar  
    25    14    39 1   
    26    15    24 ar  
    27    15    26 ar  
    28    15    40 1   
    29    16    17 1   
    30    16    20 ar  
    31    16    25 ar  
    32    17    22 1   
    33    17    41 1   
    34    17    42 1   
    35    18    25 ar  
    36    18    43 1   
    37    19    23 ar  
    38    19    24 ar  
    39    19    44 1   
    40    20    21 ar  
    41    20    45 1   
    42    21    26 ar  
    43    22    27 1   
    44    22    46 1   
    45    22    47 1   
    46    23    52 1   
    47    25    48 1   
    48    26    49 1   
    49    27    30 1   
    50    27    32 1   
    51    28    29 1   
    52    28    50 1   
    53    28    51 1   
    54    29    52 1   
    55    31    52 2   
@<TRIPOS>SUBSTRUCTURE
     1 QM4         1 TEMP              0 ****  ****    0 ROOT
