@<TRIPOS>MOLECULE
QM5
   46    47     1     0     0
SMALL
bcc


@<TRIPOS>ATOM
      1 C4          36.4540    25.0230   -15.7520 ca         1 QM5      -0.187000
      2 C14         39.5900    28.6220   -15.2120 ca         1 QM5      -0.149000
      3 C5          36.7820    23.7450   -16.1730 ca         1 QM5      -0.084000
      4 C6          36.7400    23.3810   -17.5160 ca         1 QM5      -0.054300
      5 C7          37.1420    22.0010   -17.9410 c3         1 QM5       0.194700
      6 C8          39.0060    20.5610   -17.9640 c3         1 QM5       0.040100
      7 C9          38.9090    19.7750   -16.6330 c          1 QM5       0.909600
      8 C10         40.4480    20.6030   -18.4700 c3         1 QM5       0.049500
      9 C12         37.2450    28.2740   -14.7510 ca         1 QM5       0.096600
     10 C13         38.3610    28.0930   -15.5690 ca         1 QM5      -0.150500
     11 N1          41.3320    21.1990   -17.4770 n8         1 QM5      -0.872800
     12 C3          36.0780    25.9930   -16.6840 ca         1 QM5       0.097600
     13 N3          36.0070    27.6940   -15.0350 nu         1 QM5      -0.482400
     14 C1          36.3610    24.3540   -18.4350 ca         1 QM5      -0.084000
     15 C15         39.7460    29.3490   -14.0340 ca         1 QM5       0.083100
     16 C16         38.6330    29.5460   -13.2220 ca         1 QM5      -0.149000
     17 C17         37.4020    29.0140   -13.5820 ca         1 QM5      -0.150500
     18 C2          36.0320    25.6400   -18.0350 ca         1 QM5      -0.187000
     19 O1          38.5410    21.8890   -17.8700 os         1 QM5      -0.361600
     20 O6          40.9890    29.8160   -13.7680 os         1 QM5      -0.317900
     21 H1          36.4950    25.2720   -14.7000 ha         1 QM5       0.116000
     22 H3          37.0810    23.0100   -15.4350 ha         1 QM5       0.152000
     23 H4          36.7850    21.8060   -18.9640 h1         1 QM5       0.015200
     24 H5          36.6540    21.2630   -17.2920 h1         1 QM5       0.015200
     25 H6          38.4200    20.0090   -18.7130 h1         1 QM5       0.025700
     26 H7          40.7220    19.5600   -18.6880 h1         1 QM5       0.020700
     27 H8          38.2890    27.5330   -16.4920 ha         1 QM5       0.140000
     28 H9          41.7460    20.4770   -16.9030 hn         1 QM5       0.316300
     29 H10         42.0870    21.6540   -17.9730 hn         1 QM5       0.316300
     30 H13         35.2170    28.1320   -14.5860 hn         1 QM5       0.413800
     31 H14         36.3210    24.1070   -19.4900 ha         1 QM5       0.152000
     32 H15         38.6960    30.1110   -12.3020 ha         1 QM5       0.134000
     33 H16         36.5510    29.1800   -12.9310 ha         1 QM5       0.140000
     34 H17         42.2330    30.8270   -12.5510 h1         1 QM5       0.028367
     35 H18         40.5830    31.4700   -12.5660 h1         1 QM5       0.028367
     36 H19         40.9450    29.9690   -11.6890 h1         1 QM5       0.028367
     37 H20         35.7430    26.3780   -18.7750 ha         1 QM5       0.116000
     38 N2          35.7220    27.2810   -16.3100 nu         1 QM5      -0.507400
     39 O2          39.1970    18.5630   -16.7270 o          1 QM5      -0.866800
     40 C11         40.5250    21.3480   -19.8290 c          1 QM5       0.929600
     41 O4          41.4030    22.2260   -19.9520 o          1 QM5      -0.866300
     42 O5          39.7190    20.9730   -20.7040 o          1 QM5      -0.866300
     43 C18         41.1810    30.5550   -12.5820 c3         1 QM5       0.132700
     44 H12         35.8260    27.9850   -17.0320 hn         1 QM5       0.379800
     45 O3          38.5710    20.3830   -15.6000 o          1 QM5      -0.866800
     46 H2          40.4450    28.4660   -15.8590 ha         1 QM5       0.134000
@<TRIPOS>BOND
     1     1     3 ar  
     2     1    12 ar  
     3     1    21 1   
     4     2    10 ar  
     5     2    15 ar  
     6     2    46 1   
     7     3     4 ar  
     8     3    22 1   
     9     4     5 1   
    10     4    14 ar  
    11     5    19 1   
    12     5    23 1   
    13     5    24 1   
    14     6     7 1   
    15     6     8 1   
    16     6    19 1   
    17     6    25 1   
    18     7    39 1   
    19     7    45 1   
    20     8    11 1   
    21     8    26 1   
    22     8    40 1   
    23     9    10 ar  
    24     9    13 1   
    25     9    17 ar  
    26    10    27 1   
    27    11    28 1   
    28    11    29 1   
    29    12    18 ar  
    30    12    38 1   
    31    13    30 1   
    32    13    38 1   
    33    14    18 ar  
    34    14    31 1   
    35    15    16 ar  
    36    15    20 1   
    37    16    17 ar  
    38    16    32 1   
    39    17    33 1   
    40    18    37 1   
    41    20    43 1   
    42    34    43 1   
    43    35    43 1   
    44    36    43 1   
    45    38    44 1   
    46    40    41 1   
    47    40    42 1   
@<TRIPOS>SUBSTRUCTURE
     1 QM5         1 TEMP              0 ****  ****    0 ROOT
