@<TRIPOS>MOLECULE
QM5
   46    47     1     0     0
SMALL
No Charge or Current Charge


@<TRIPOS>ATOM
      1 C4          36.6620    24.6160   -15.5360 ca         1 QM5      -0.169000
      2 C14         39.7970    29.8520   -14.9220 ca         1 QM5      -0.131000
      3 C5          36.7430    23.3200   -16.0760 ca         1 QM5      -0.066000
      4 C6          36.9000    23.1360   -17.4630 ca         1 QM5      -0.054300
      5 C7          36.9780    21.7320   -18.0480 c3         1 QM5       0.217900
      6 C8          38.5850    19.9780   -18.6170 c3         1 QM5       0.063300
      7 C9          38.0680    18.8010   -17.7080 c          1 QM5       0.699000
      8 C10         40.1070    19.8100   -18.9360 c3         1 QM5       0.049500
      9 C12         37.9110    28.4350   -14.2790 ca         1 QM5       0.235000
     10 C13         38.9530    28.7540   -15.1740 ca         1 QM5      -0.132500
     11 N1          41.0240    20.2120   -17.7910 n8         1 QM5      -0.983200
     12 C3          36.7410    25.7470   -16.3760 ca         1 QM5       0.236000
     13 N3          37.0560    27.3360   -14.5030 nu         1 QM5      -0.676000
     14 C1          36.9760    24.2630   -18.3030 ca         1 QM5      -0.066000
     15 C15         39.6140    30.6400   -13.7740 ca         1 QM5       0.083100
     16 C16         38.5780    30.3190   -12.8690 ca         1 QM5      -0.131000
     17 C17         37.7370    29.2200   -13.1240 ca         1 QM5      -0.132500
     18 C2          36.8940    25.5590   -17.7610 ca         1 QM5      -0.169000
     19 O1          38.3540    21.3100   -18.0700 os         1 QM5      -0.408000
     20 O6          40.4710    31.7050   -13.5790 os         1 QM5      -0.341100
     21 H1          36.5340    24.7340   -14.4640 ha         1 QM5       0.098000
     22 H3          36.6830    22.4560   -15.4170 ha         1 QM5       0.134000
     23 H4          36.5640    21.7380   -19.0650 h1         1 QM5       0.015200
     24 H5          36.3650    21.0530   -17.4430 h1         1 QM5       0.015200
     25 H6          38.0430    19.8800   -19.5680 h1         1 QM5       0.025700
     26 H7          40.2710    18.7290   -19.0510 h1         1 QM5       0.020700
     27 H8          39.1200    28.1470   -16.0590 ha         1 QM5       0.122000
     28 H9          40.7480    19.7070   -16.9420 hn         1 QM5       0.371500
     29 H10         41.9770    19.8850   -17.9870 hn         1 QM5       0.371500
     30 H13         36.2730    27.3350   -13.8320 hn         1 QM5       0.469000
     31 H14         37.0980    24.1350   -19.3770 ha         1 QM5       0.134000
     32 H15         38.4120    30.9050   -11.9700 ha         1 QM5       0.116000
     33 H16         36.9440    28.9810   -12.4200 ha         1 QM5       0.122000
     34 H17         41.1440    33.3480   -12.4770 h1         1 QM5       0.028367
     35 H18         39.3910    33.0680   -12.4080 h1         1 QM5       0.028367
     36 H19         40.5050    32.0060   -11.5040 h1         1 QM5       0.028367
     37 H20         36.9520    26.4180   -18.4230 ha         1 QM5       0.098000
     38 N2          36.6540    27.0620   -15.8770 nu         1 QM5      -0.701000
     39 O2          37.8580    17.7180   -18.2400 o          1 QM5      -0.761500
     40 C11         40.4170    20.4060   -20.3750 c          1 QM5       0.719000
     41 O4          40.8640    21.5430   -20.4770 o          1 QM5      -0.761000
     42 O5          40.3240    19.6540   -21.3380 o          1 QM5      -0.761000
     43 C18         40.3700    32.5710   -12.4350 c3         1 QM5       0.155900
     44 H12         36.8930    27.7890   -16.5650 hn         1 QM5       0.435000
     45 O3          37.8020    19.0060   -16.5290 o          1 QM5      -0.761500
     46 H2          40.5970    30.0900   -15.6180 ha         1 QM5       0.116000
@<TRIPOS>BOND
     1     1     3 ar  
     2     1    12 ar  
     3     1    21 1   
     4     2    10 ar  
     5     2    15 ar  
     6     2    46 1   
     7     3     4 ar  
     8     3    22 1   
     9     4     5 1   
    10     4    14 ar  
    11     5    19 1   
    12     5    23 1   
    13     5    24 1   
    14     6     7 1   
    15     6     8 1   
    16     6    19 1   
    17     6    25 1   
    18     7    39 1   
    19     7    45 1   
    20     8    11 1   
    21     8    26 1   
    22     8    40 1   
    23     9    10 ar  
    24     9    13 1   
    25     9    17 ar  
    26    10    27 1   
    27    11    28 1   
    28    11    29 1   
    29    12    18 ar  
    30    12    38 1   
    31    13    30 1   
    32    13    38 1   
    33    14    18 ar  
    34    14    31 1   
    35    15    16 ar  
    36    15    20 1   
    37    16    17 ar  
    38    16    32 1   
    39    17    33 1   
    40    18    37 1   
    41    20    43 1   
    42    34    43 1   
    43    35    43 1   
    44    36    43 1   
    45    38    44 1   
    46    40    41 1   
    47    40    42 1   
@<TRIPOS>SUBSTRUCTURE
     1 QM5         1 TEMP              0 ****  ****    0 ROOT
