@<TRIPOS>MOLECULE
QM6
   47    50     1     0     0
SMALL
No Charge or Current Charge


@<TRIPOS>ATOM
      1 C18        -47.2160   -27.9990     2.3280 ca         1 QM6      -0.039000
      2 C17        -45.9580   -28.5970     2.5600 ca         1 QM6      -0.159600
      3 C15        -44.7960   -28.2610     1.6470 c          1 QM6       0.605700
      4 C13        -42.3610   -28.7090     1.1670 c3         1 QM6       0.184200
      5 C12        -41.8440   -30.0230     0.6370 cc         1 QM6      -0.204400
      6 C11        -41.4570   -30.3040    -0.7380 ca         1 QM6      -0.088800
      7 C10        -41.4780   -29.4900    -1.8800 ca         1 QM6      -0.068000
      8 C20        -48.1900   -29.1800     4.2330 ca         1 QM6      -0.003000
      9 C19        -48.3180   -28.2850     3.1520 ca         1 QM6      -0.171000
     10 C04        -41.5930   -31.2340     1.3030 cd         1 QM6       0.020900
     11 C06        -41.0170   -31.6050    -0.8080 ca         1 QM6       0.045100
     12 C07        -40.5690   -32.1900    -1.9970 ca         1 QM6      -0.108000
     13 C08        -40.5820   -31.3900    -3.1600 ca         1 QM6      -0.123000
     14 C09        -41.0330   -30.0480    -3.1000 ca         1 QM6      -0.150000
     15 C25        -52.6540   -29.4850     6.4930 cx         1 QM6       0.064700
     16 C26        -53.6520   -30.5050     6.0020 cx         1 QM6      -0.135400
     17 C27        -53.3250   -30.4160     7.4730 cx         1 QM6      -0.135400
     18 C28        -46.9400   -29.7780     4.4680 ca         1 QM6      -0.171000
     19 C29        -45.8350   -29.4950     3.6470 ca         1 QM6      -0.039000
     20 N14        -43.5970   -28.8750     1.9190 ns         1 QM6      -0.479900
     21 N21        -49.2570   -29.5190     5.1090 ns         1 QM6      -0.162000
     22 N24        -51.2660   -29.7150     6.2000 ns         1 QM6      -0.509900
     23 O01        -42.2740   -30.7400     3.5140 o          1 QM6      -0.697000
     24 O03        -41.5000   -32.7040     3.1380 o          1 QM6      -0.697000
     25 O05        -41.0960   -32.1700     0.4210 os         1 QM6      -0.156200
     26 O16        -44.9130   -27.4810     0.7110 o          1 QM6      -0.648100
     27 O23        -51.1180   -28.3250     4.4010 o          1 QM6      -0.617100
     28 H181       -47.3470   -27.3030     1.5000 ha         1 QM6       0.135000
     29 H132       -41.6070   -28.2710     1.8340 h1         1 QM6       0.053200
     30 H131       -42.5150   -28.0090     0.3370 h1         1 QM6       0.053200
     31 H101       -41.8250   -28.4600    -1.8340 ha         1 QM6       0.115000
     32 H191       -49.2620   -27.7990     2.9300 ha         1 QM6       0.123500
     33 H071       -40.2270   -33.2220    -2.0220 ha         1 QM6       0.118000
     34 H081       -40.2420   -31.8050    -4.1060 ha         1 QM6       0.094000
     35 H091       -41.0390   -29.4410    -4.0020 ha         1 QM6       0.094000
     36 H251       -52.9500   -28.4340     6.4990 h1         1 QM6       0.082700
     37 H261       -54.6220   -30.1410     5.6740 hc         1 QM6       0.076950
     38 H262       -53.2750   -31.3610     5.4480 hc         1 QM6       0.076950
     39 H271       -54.0770   -29.9930     8.1340 hc         1 QM6       0.076950
     40 H272       -52.7330   -31.2170     7.9090 hc         1 QM6       0.076950
     41 H281       -46.8190   -30.4720     5.2970 ha         1 QM6       0.123500
     42 H291       -44.8920   -29.9850     3.8740 ha         1 QM6       0.135000
     43 H141       -43.5570   -29.5060     2.7130 hn         1 QM6       0.365500
     44 H211       -48.9950   -30.1810     5.8270 hn         1 QM6       0.139000
     45 H241       -50.7390   -30.3520     6.7830 hn         1 QM6       0.309500
     46 C02        -41.8000   -31.5780     2.7570 c          1 QM6       0.732200
     47 C22        -50.5830   -29.1170     5.1650 c          1 QM6       0.660100
@<TRIPOS>BOND
     1     1     2 ar  
     2     1     9 ar  
     3     1    28 1   
     4     2     3 1   
     5     2    19 ar  
     6     3    20 1   
     7     3    26 2   
     8     4     5 1   
     9     4    20 1   
    10     4    29 1   
    11     4    30 1   
    12     5     6 1   
    13     5    10 2   
    14     6     7 ar  
    15     6    11 ar  
    16     7    14 ar  
    17     7    31 1   
    18     8     9 ar  
    19     8    18 ar  
    20     8    21 1   
    21     9    32 1   
    22    10    25 1   
    23    10    46 1   
    24    11    12 ar  
    25    11    25 1   
    26    12    13 ar  
    27    12    33 1   
    28    13    14 ar  
    29    13    34 1   
    30    14    35 1   
    31    15    16 1   
    32    15    17 1   
    33    15    22 1   
    34    15    36 1   
    35    16    17 1   
    36    16    37 1   
    37    16    38 1   
    38    17    39 1   
    39    17    40 1   
    40    18    19 ar  
    41    18    41 1   
    42    19    42 1   
    43    20    43 1   
    44    21    44 1   
    45    21    47 1   
    46    22    45 1   
    47    22    47 1   
    48    23    46 1   
    49    24    46 1   
    50    27    47 2   
@<TRIPOS>SUBSTRUCTURE
     1 QM6         1 TEMP              0 ****  ****    0 ROOT
