@<TRIPOS>MOLECULE
QM6
   47    50     1     0     0
SMALL
abcg2


@<TRIPOS>ATOM
      1 C18        -46.9300   -28.4040     2.2720 ca         1 QM6      -0.039000
      2 C17        -45.6460   -28.5000     2.8070 ca         1 QM6      -0.159600
      3 C15        -44.4750   -28.2660     1.9090 c          1 QM6       0.605700
      4 C13        -42.0960   -28.7430     1.5140 c3         1 QM6       0.184200
      5 C12        -41.9100   -30.0560     0.8060 cc         1 QM6      -0.204400
      6 C11        -41.8210   -30.2420    -0.6200 ca         1 QM6      -0.088800
      7 C10        -41.8670   -29.3970    -1.7350 ca         1 QM6      -0.068000
      8 C20        -47.9300   -28.9450     4.3970 ca         1 QM6      -0.003000
      9 C19        -48.0630   -28.6250     3.0400 ca         1 QM6      -0.171000
     10 C04        -41.8080   -31.2970     1.3640 cd         1 QM6       0.020900
     11 C06        -41.6630   -31.6220    -0.8160 ca         1 QM6       0.045100
     12 C07        -41.5480   -32.2090    -2.0660 ca         1 QM6      -0.108000
     13 C08        -41.5960   -31.3520    -3.1590 ca         1 QM6      -0.123000
     14 C09        -41.7550   -29.9660    -2.9950 ca         1 QM6      -0.150000
     15 C25        -52.5490   -29.6590     5.9410 cx         1 QM6       0.064700
     16 C26        -53.1590   -30.9340     5.4310 cx         1 QM6      -0.135400
     17 C27        -53.2400   -30.5870     6.8940 cx         1 QM6      -0.135400
     18 C28        -46.6420   -29.0270     4.9460 ca         1 QM6      -0.171000
     19 C29        -45.5220   -28.8120     4.1650 ca         1 QM6      -0.039000
     20 N14        -43.2870   -28.7280     2.3480 ns         1 QM6      -0.479900
     21 N21        -49.0020   -29.1760     5.2580 ns         1 QM6      -0.162000
     22 N24        -51.1240   -29.5630     6.0430 ns         1 QM6      -0.509900
     23 O01        -42.0970   -30.8900     3.6550 o          1 QM6      -0.697000
     24 O03        -41.5940   -32.9810     2.9990 o          1 QM6      -0.697000
     25 O05        -41.6520   -32.2660     0.3840 os         1 QM6      -0.156200
     26 O16        -44.6060   -27.6730     0.8310 o          1 QM6      -0.648100
     27 O23        -50.8010   -29.1940     3.8190 o          1 QM6      -0.617100
     28 H181       -47.0400   -28.1560     1.2250 ha         1 QM6       0.135000
     29 H132       -41.2350   -28.5380     2.1510 h1         1 QM6       0.053200
     30 H131       -42.1750   -27.9400     0.7860 h1         1 QM6       0.053200
     31 H101       -41.9930   -28.3280    -1.6190 ha         1 QM6       0.115000
     32 H191       -49.0420   -28.5560     2.5990 ha         1 QM6       0.123500
     33 H071       -41.4300   -33.2780    -2.1810 ha         1 QM6       0.118000
     34 H081       -41.5110   -31.7620    -4.1570 ha         1 QM6       0.094000
     35 H091       -41.7900   -29.3320    -3.8720 ha         1 QM6       0.094000
     36 H251       -53.0570   -28.7340     5.6880 h1         1 QM6       0.082700
     37 H261       -54.0540   -30.8560     4.8300 hc         1 QM6       0.076950
     38 H262       -52.4730   -31.7180     5.1410 hc         1 QM6       0.076950
     39 H271       -54.1900   -30.2700     7.3010 hc         1 QM6       0.076950
     40 H272       -52.6130   -31.1450     7.5770 hc         1 QM6       0.076950
     41 H281       -46.5270   -29.2600     5.9980 ha         1 QM6       0.123500
     42 H291       -44.5480   -28.8720     4.6320 ha         1 QM6       0.135000
     43 H141       -43.2380   -29.4140     3.0950 hn         1 QM6       0.365500
     44 H211       -48.7420   -29.3450     6.2180 hn         1 QM6       0.139000
     45 H241       -50.7250   -29.4840     6.9650 hn         1 QM6       0.309500
     46 C02        -41.8340   -31.7720     2.7910 c          1 QM6       0.732200
     47 C22        -50.3450   -29.2980     4.9550 c          1 QM6       0.660100
@<TRIPOS>BOND
     1     1     2 ar  
     2     1     9 ar  
     3     1    28 1   
     4     2     3 1   
     5     2    19 ar  
     6     3    20 1   
     7     3    26 2   
     8     4     5 1   
     9     4    20 1   
    10     4    29 1   
    11     4    30 1   
    12     5     6 1   
    13     5    10 2   
    14     6     7 ar  
    15     6    11 ar  
    16     7    14 ar  
    17     7    31 1   
    18     8     9 ar  
    19     8    18 ar  
    20     8    21 1   
    21     9    32 1   
    22    10    25 1   
    23    10    46 1   
    24    11    12 ar  
    25    11    25 1   
    26    12    13 ar  
    27    12    33 1   
    28    13    14 ar  
    29    13    34 1   
    30    14    35 1   
    31    15    16 1   
    32    15    17 1   
    33    15    22 1   
    34    15    36 1   
    35    16    17 1   
    36    16    37 1   
    37    16    38 1   
    38    17    39 1   
    39    17    40 1   
    40    18    19 ar  
    41    18    41 1   
    42    19    42 1   
    43    20    43 1   
    44    21    44 1   
    45    21    47 1   
    46    22    45 1   
    47    22    47 1   
    48    23    46 1   
    49    24    46 1   
    50    27    47 2   
@<TRIPOS>SUBSTRUCTURE
     1 QM6         1 TEMP              0 ****  ****    0 ROOT
