@<TRIPOS>MOLECULE
QM8
   22    21     1     0     0
SMALL
bcc


@<TRIPOS>ATOM
      1 N           31.5900    11.0430    69.6710 n8         1 QM8      -0.885800
      2 CA          30.6110     9.9760    69.5280 c3         1 QM8       0.011500
      3 CB          30.7880     9.2840    68.1740 c3         1 QM8      -0.053400
      4 CG          30.7720    10.2130    66.9630 c3         1 QM8      -0.064400
      5 CD          29.4700    10.9890    66.8120 c3         1 QM8      -0.063400
      6 CE          29.3410    11.7380    65.4950 c3         1 QM8       0.047700
      7 SZ          30.6330    13.0280    65.3750 sh         1 QM8      -0.405900
      8 C           30.6020     8.9130    70.6600 c          1 QM8       0.902600
      9 O           29.6920     8.0600    70.5960 o          1 QM8      -0.842300
     10 OXT         31.4880     8.9890    71.5340 o          1 QM8      -0.842300
     11 H           31.4900    11.4510    70.5930 hn         1 QM8       0.324300
     12 H2          32.5160    10.6290    69.6810 hn         1 QM8       0.324300
     13 HA          29.6190    10.4460    69.5350 h1         1 QM8       0.036700
     14 HB1         30.0030     8.5340    68.0610 hc         1 QM8       0.038700
     15 HB2         31.7370     8.7340    68.1790 hc         1 QM8       0.038700
     16 H7          30.9300     9.6110    66.0610 hc         1 QM8       0.030200
     17 H8          31.6160    10.9030    67.0210 hc         1 QM8       0.030200
     18 H9          29.3460    11.6930    67.6390 hc         1 QM8       0.055200
     19 H10         28.6260    10.2940    66.8740 hc         1 QM8       0.055200
     20 H11         28.3650    12.2180    65.4270 h1         1 QM8       0.042700
     21 H12         29.4420    11.0520    64.6530 h1         1 QM8       0.042700
     22 H13         30.2160    13.5860    64.2330 hs         1 QM8       0.176800
@<TRIPOS>BOND
     1     1     2 1   
     2     1    11 1   
     3     1    12 1   
     4     2     3 1   
     5     2     8 1   
     6     2    13 1   
     7     3     4 1   
     8     3    14 1   
     9     3    15 1   
    10     4     5 1   
    11     4    16 1   
    12     4    17 1   
    13     5     6 1   
    14     5    18 1   
    15     5    19 1   
    16     6     7 1   
    17     6    20 1   
    18     6    21 1   
    19     7    22 1   
    20     8     9 1   
    21     8    10 1   
@<TRIPOS>SUBSTRUCTURE
     1 QM8         1 TEMP              0 ****  ****    0 ROOT
