@<TRIPOS>MOLECULE
QM8
   22    21     1     0     0
SMALL
No Charge or Current Charge


@<TRIPOS>ATOM
      1 N           31.7350    11.0200    69.8520 n8         1 QM8      -0.885800
      2 CA          30.6790     9.9750    69.5630 c3         1 QM8       0.011500
      3 CB          30.9130     9.3270    68.1690 c3         1 QM8      -0.053400
      4 CG          30.8280    10.2830    66.9490 c3         1 QM8      -0.064400
      5 CD          29.4300    10.9130    66.7260 c3         1 QM8      -0.063400
      6 CE          29.3140    11.7230    65.4180 c3         1 QM8       0.047700
      7 SZ          30.3770    13.2390    65.3640 sh         1 QM8      -0.405900
      8 C           30.4740     8.8440    70.6640 c          1 QM8       0.902600
      9 O           29.3580     8.6910    71.1490 o          1 QM8      -0.842300
     10 OXT         31.4570     8.2390    71.0810 o          1 QM8      -0.842300
     11 H           31.5250    11.4720    70.7480 hn         1 QM8       0.324300
     12 H2          32.6280    10.5430    70.0170 hn         1 QM8       0.324300
     13 HA          29.7220    10.5120    69.5180 h1         1 QM8       0.036700
     14 HB1         30.1770     8.5260    68.0270 hc         1 QM8       0.038700
     15 HB2         31.8960     8.8390    68.1650 hc         1 QM8       0.038700
     16 H7          31.1010     9.7140    66.0520 hc         1 QM8       0.030200
     17 H8          31.5790    11.0760    67.0500 hc         1 QM8       0.030200
     18 H9          29.1760    11.5670    67.5680 hc         1 QM8       0.055200
     19 H10         28.6780    10.1140    66.7050 hc         1 QM8       0.055200
     20 H11         28.2710    12.0420    65.2880 h1         1 QM8       0.042700
     21 H12         29.5780    11.0840    64.5660 h1         1 QM8       0.042700
     22 H13         29.9980    13.6430    64.1270 hs         1 QM8       0.176800
@<TRIPOS>BOND
     1     1     2 1   
     2     1    11 1   
     3     1    12 1   
     4     2     3 1   
     5     2     8 1   
     6     2    13 1   
     7     3     4 1   
     8     3    14 1   
     9     3    15 1   
    10     4     5 1   
    11     4    16 1   
    12     4    17 1   
    13     5     6 1   
    14     5    18 1   
    15     5    19 1   
    16     6     7 1   
    17     6    20 1   
    18     6    21 1   
    19     7    22 1   
    20     8     9 1   
    21     8    10 1   
@<TRIPOS>SUBSTRUCTURE
     1 QM8         1 TEMP              0 ****  ****    0 ROOT
