@<TRIPOS>MOLECULE
QMA
   25    26     1     0     0
SMALL
bcc


@<TRIPOS>ATOM
      1 C4          28.5530    16.3390    10.3280 ca         1 QMA      -0.058000
      2 C5          29.7520    15.7300    10.5140 ca         1 QMA      -0.167000
      3 C6          30.8570    16.4640    11.0030 ca         1 QMA       0.197100
      4 C7          29.2110    19.8340    11.3810 ca         1 QMA      -0.097000
      5 C8          27.9750    20.3880    11.1900 ca         1 QMA      -0.132000
      6 C10         27.0960    18.2960    10.4250 ca         1 QMA      -0.210000
      7 C1          30.7420    17.8270    11.2840 ca         1 QMA      -0.275600
      8 C2          29.4620    18.4680    11.1040 ca         1 QMA       0.017000
      9 C3          28.3670    17.7130    10.6210 ca         1 QMA      -0.047000
     10 C9          26.8930    19.6250    10.7060 ca         1 QMA       0.136100
     11 O1          31.9630    15.7230    11.1450 oh         1 QMA      -0.493100
     12 C11         31.9350    18.5460    11.7170 c          1 QMA       0.591500
     13 O2          32.0200    19.7200    12.0130 o          1 QMA      -0.525100
     14 O3          25.7300    20.2820    10.5580 os         1 QMA      -0.313900
     15 C12         24.6160    19.5660    10.0630 c3         1 QMA       0.123700
     16 H1          27.7130    15.7650     9.9560 ha         1 QMA       0.136000
     17 H2          29.8810    14.6780    10.2990 ha         1 QMA       0.152000
     18 H3          29.9990    20.4650    11.7540 ha         1 QMA       0.165000
     19 H4          27.8180    21.4360    11.4140 ha         1 QMA       0.148000
     20 H5          26.3010    17.6640    10.0520 ha         1 QMA       0.135000
     21 H6          32.6820    16.1810    11.5920 ho         1 QMA       0.435000
     22 H7          32.8620    17.9480    11.7610 h4         1 QMA      -0.040800
     23 H8          23.7900    20.2700    10.0120 h1         1 QMA       0.041033
     24 H9          24.8020    19.1670     9.0620 h1         1 QMA       0.041033
     25 H10         24.3350    18.7410    10.7230 h1         1 QMA       0.041033
@<TRIPOS>BOND
     1     1     2 ar  
     2     1     9 ar  
     3     1    16 1   
     4     2     3 ar  
     5     2    17 1   
     6     3     7 ar  
     7     3    11 1   
     8     4     5 ar  
     9     4     8 ar  
    10     4    18 1   
    11     5    10 ar  
    12     5    19 1   
    13     6     9 ar  
    14     6    10 ar  
    15     6    20 1   
    16     7     8 ar  
    17     7    12 1   
    18     8     9 ar  
    19    10    14 1   
    20    11    21 1   
    21    12    13 2   
    22    12    22 1   
    23    14    15 1   
    24    15    23 1   
    25    15    24 1   
    26    15    25 1   
@<TRIPOS>SUBSTRUCTURE
     1 QMA         1 TEMP              0 ****  ****    0 ROOT
