@<TRIPOS>MOLECULE
QMA
   25    26     1     0     0
SMALL
No Charge or Current Charge


@<TRIPOS>ATOM
      1 C4          28.5310    16.3170    10.3220 ca         1 QMA      -0.040000
      2 C5          29.7680    15.6940    10.5240 ca         1 QMA      -0.149000
      3 C6          30.8630    16.4240    11.0010 ca         1 QMA       0.197100
      4 C7          29.2490    19.7960    11.4350 ca         1 QMA      -0.079000
      5 C8          27.9890    20.3880    11.2380 ca         1 QMA      -0.114000
      6 C10         27.1150    18.2800    10.4190 ca         1 QMA      -0.192000
      7 C1          30.7350    17.8010    11.2950 ca         1 QMA      -0.275600
      8 C2          29.4700    18.4350    11.1120 ca         1 QMA       0.017000
      9 C3          28.3760    17.6810    10.6150 ca         1 QMA      -0.047000
     10 C9          26.9200    19.6410    10.7270 ca         1 QMA       0.136100
     11 O1          32.0480    15.7610    11.1490 oh         1 QMA      -0.532100
     12 C11         31.9400    18.5420    11.8130 c          1 QMA       0.591500
     13 O2          32.2930    19.6440    11.4110 o          1 QMA      -0.525100
     14 O3          25.7080    20.2780    10.5570 os         1 QMA      -0.337100
     15 C12         24.5490    19.5990    10.0400 c3         1 QMA       0.146900
     16 H1          27.6930    15.7350     9.9450 ha         1 QMA       0.118000
     17 H2          29.8820    14.6370    10.2980 ha         1 QMA       0.134000
     18 H3          30.0350    20.4180    11.8500 ha         1 QMA       0.147000
     19 H4          27.8400    21.4350    11.4890 ha         1 QMA       0.130000
     20 H5          26.3000    17.6750    10.0330 ha         1 QMA       0.117000
     21 H6          32.7890    16.4010    11.1450 ho         1 QMA       0.474000
     22 H7          32.5610    17.9920    12.5540 h4         1 QMA      -0.040800
     23 H8          23.6980    20.2890     9.9840 h1         1 QMA       0.041033
     24 H9          24.7400    19.2130     9.0310 h1         1 QMA       0.041033
     25 H10         24.2650    18.7620    10.6910 h1         1 QMA       0.041033
@<TRIPOS>BOND
     1     1     2 ar  
     2     1     9 ar  
     3     1    16 1   
     4     2     3 ar  
     5     2    17 1   
     6     3     7 ar  
     7     3    11 1   
     8     4     5 ar  
     9     4     8 ar  
    10     4    18 1   
    11     5    10 ar  
    12     5    19 1   
    13     6     9 ar  
    14     6    10 ar  
    15     6    20 1   
    16     7     8 ar  
    17     7    12 1   
    18     8     9 ar  
    19    10    14 1   
    20    11    21 1   
    21    12    13 2   
    22    12    22 1   
    23    14    15 1   
    24    15    23 1   
    25    15    24 1   
    26    15    25 1   
@<TRIPOS>SUBSTRUCTURE
     1 QMA         1 TEMP              0 ****  ****    0 ROOT
