@<TRIPOS>MOLECULE
QMB
   19    18     1     0     0
SMALL
No Charge or Current Charge


@<TRIPOS>ATOM
      1 N          -29.6310   -36.7610     8.9930 n8         1 QMB      -0.899800
      2 CA         -30.8670   -37.6270     8.9130 c3         1 QMB       0.019500
      3 CB         -30.9170   -38.6090    10.1210 c3         1 QMB      -0.046400
      4 CG         -29.7060   -39.5690    10.2980 c3         1 QMB      -0.065400
      5 CD         -29.5100   -40.6170     9.1780 c3         1 QMB       0.055700
      6 SE         -28.5710   -40.0140     7.6990 sh         1 QMB      -0.398900
      7 C          -32.2600   -36.8730     8.7010 c          1 QMB       0.929600
      8 O          -32.9700   -36.6140     9.6700 o          1 QMB      -0.838800
      9 OXT        -32.5880   -36.5680     7.5570 o          1 QMB      -0.838800
     10 H          -28.8080   -37.3720     8.9870 hn         1 QMB       0.331300
     11 H2         -29.5490   -36.2160     8.1280 hn         1 QMB       0.331300
     12 HA         -30.7410   -38.2410     8.0120 h1         1 QMB       0.009700
     13 HB1        -31.0290   -38.0260    11.0430 hc         1 QMB       0.045700
     14 HB2        -31.8250   -39.2190    10.0350 hc         1 QMB       0.045700
     15 H7         -29.8650   -40.1170    11.2350 hc         1 QMB       0.033700
     16 H8         -28.7800   -38.9990    10.4390 hc         1 QMB       0.033700
     17 H9         -30.4840   -41.0010     8.8510 h1         1 QMB       0.042200
     18 H10        -28.9420   -41.4610     9.5900 h1         1 QMB       0.042200
     19 H11        -28.6060   -41.1830     7.0150 hs         1 QMB       0.166800
@<TRIPOS>BOND
     1     1     2 1   
     2     1    10 1   
     3     1    11 1   
     4     2     3 1   
     5     2     7 1   
     6     2    12 1   
     7     3     4 1   
     8     3    13 1   
     9     3    14 1   
    10     4     5 1   
    11     4    15 1   
    12     4    16 1   
    13     5     6 1   
    14     5    17 1   
    15     5    18 1   
    16     6    19 1   
    17     7     8 1   
    18     7     9 1   
@<TRIPOS>SUBSTRUCTURE
     1 QMB         1 TEMP              0 ****  ****    0 ROOT
