@<TRIPOS>MOLECULE
QMB
   19    18     1     0     0
SMALL
bcc


@<TRIPOS>ATOM
      1 N          -29.6380   -36.9050     8.7900 n8         1 QMB      -0.899800
      2 CA         -30.8560   -37.7010     8.8260 c3         1 QMB       0.019500
      3 CB         -30.8860   -38.5710    10.0830 c3         1 QMB      -0.046400
      4 CG         -29.6900   -39.4990    10.2810 c3         1 QMB      -0.065400
      5 CD         -29.5920   -40.6800     9.3230 c3         1 QMB       0.055700
      6 SE         -29.0460   -40.2030     7.6370 sh         1 QMB      -0.398900
      7 C          -32.1190   -36.8010     8.7370 c          1 QMB       0.929600
      8 O          -33.2070   -37.3590     8.9780 o          1 QMB      -0.838800
      9 OXT        -31.9500   -35.6130     8.3940 o          1 QMB      -0.838800
     10 H          -28.8880   -37.4360     8.3660 hn         1 QMB       0.331300
     11 H2         -29.8070   -36.1050     8.1950 hn         1 QMB       0.331300
     12 HA         -30.9360   -38.3690     7.9510 h1         1 QMB       0.009700
     13 HB1        -30.9440   -37.9110    10.9550 hc         1 QMB       0.045700
     14 HB2        -31.8000   -39.1680    10.0840 hc         1 QMB       0.045700
     15 H7         -29.7670   -39.9290    11.2850 hc         1 QMB       0.033700
     16 H8         -28.7540   -38.9350    10.2710 hc         1 QMB       0.033700
     17 H9         -30.5510   -41.1960     9.2550 h1         1 QMB       0.042200
     18 H10        -28.8590   -41.3920     9.6990 h1         1 QMB       0.042200
     19 H11        -28.3590   -41.3150     7.3550 hs         1 QMB       0.166800
@<TRIPOS>BOND
     1     1     2 1   
     2     1    10 1   
     3     1    11 1   
     4     2     3 1   
     5     2     7 1   
     6     2    12 1   
     7     3     4 1   
     8     3    13 1   
     9     3    14 1   
    10     4     5 1   
    11     4    15 1   
    12     4    16 1   
    13     5     6 1   
    14     5    17 1   
    15     5    18 1   
    16     6    19 1   
    17     7     8 1   
    18     7     9 1   
@<TRIPOS>SUBSTRUCTURE
     1 QMB         1 TEMP              0 ****  ****    0 ROOT
