@<TRIPOS>MOLECULE
QMD
   53    55     1     0     0
SMALL
abcg2


@<TRIPOS>ATOM
      1 C1          43.6550    18.4260    14.6870 c3         1 QMD       0.171300
      2 O1          42.9650    17.3120    14.1850 oh         1 QMD      -0.820000
      3 C2          45.1700    18.2510    14.6480 c3         1 QMD       0.194600
      4 O2          45.6700    18.2640    13.3150 os         1 QMD      -0.587400
      5 C3          45.1340    17.8880    10.2040 ce         1 QMD       0.098900
      6 O3          47.2900    16.3000    12.9250 o          1 QMD      -0.827000
      7 C4          43.8710    18.1460    10.5420 c2         1 QMD      -0.501000
      8 O4          44.7170    15.9760    12.7190 o          1 QMD      -0.827000
      9 C5          45.6640    18.1340     8.7800 c          1 QMD       0.715200
     10 O5          46.0960    17.3990    11.0320 os         1 QMD      -0.467500
     11 C6          43.2050    18.6690    16.1310 c3         1 QMD       0.163300
     12 O6          44.8430    18.5940     7.9650 o          1 QMD      -0.734500
     13 C7          41.6830    18.7050    16.3350 c3         1 QMD       0.167300
     14 C8          41.0170    17.3240    16.2310 c3         1 QMD       0.021600
     15 C9          38.6640    17.6430    16.7420 cc         1 QMD       0.163000
     16 O8          43.7670    19.9020    16.5270 oh         1 QMD      -0.635000
     17 C10         37.5150    17.3340    17.5260 cc         1 QMD      -0.283600
     18 C11         37.6380    16.6360    18.6880 cd         1 QMD       0.075000
     19 C12         38.9020    16.2380    19.1470 ca         1 QMD      -0.195000
     20 C13         39.0610    15.5630    20.3720 ca         1 QMD      -0.002000
     21 C14         40.2950    15.2080    20.8330 ca         1 QMD      -0.245000
     22 C15         41.4300    15.5390    20.0670 ca         1 QMD       0.203100
     23 C16         41.3070    16.1920    18.8490 ca         1 QMD      -0.204000
     24 C17         40.0450    16.5380    18.3660 ca         1 QMD       0.097000
     25 C18         36.2120    17.7990    17.0490 c          1 QMD       0.600600
     26 C19         37.4330    18.8080    15.1650 c          1 QMD       0.730400
     27 N1          39.8750    17.1680    17.1480 na         1 QMD      -0.021000
     28 N2          36.2770    18.4970    15.8780 ns         1 QMD      -0.493500
     29 N3          38.6250    18.3580    15.6410 nd         1 QMD      -0.469400
     30 O12         37.3420    19.4700    14.1500 o          1 QMD      -0.504000
     31 O7          46.8560    17.8510     8.5790 o          1 QMD      -0.734500
     32 O9          41.1190    19.6410    15.4560 oh         1 QMD      -0.700000
     33 P1          45.9480    16.8370    12.5650 p5         1 QMD       1.417800
     34 H2          43.4140    19.3260    14.1000 h1         1 QMD       0.077700
     35 H1          43.5600    16.7700    13.6130 ho         1 QMD       0.601000
     36 H4          45.4490    17.3310    15.1780 h1         1 QMD       0.018200
     37 H3          45.6470    19.0790    15.1730 h1         1 QMD       0.018200
     38 H6          43.4530    17.9830    11.5240 ha         1 QMD       0.154500
     39 H5          43.2080    18.5370     9.7870 ha         1 QMD       0.154500
     40 H7          43.5950    17.8480    16.7540 h1         1 QMD       0.009700
     41 H9          41.5450    19.0290    17.3820 h1         1 QMD      -0.016300
     42 H11         40.6500    17.1430    15.2240 h1         1 QMD       0.108200
     43 H12         41.7140    16.5200    16.4410 h1         1 QMD       0.108200
     44 H8          43.6870    19.9820    17.4830 ho         1 QMD       0.414000
     45 H13         36.7600    16.4010    19.2780 ha         1 QMD       0.136000
     46 H14         38.1780    15.3310    20.9530 ha         1 QMD       0.114000
     47 H15         40.4040    14.6910    21.7780 ha         1 QMD       0.115000
     48 H16         42.2160    16.4350    18.3210 ha         1 QMD       0.164000
     49 H17         35.4060    18.8460    15.4970 hn         1 QMD       0.328500
     50 H10         40.1880    19.3820    15.3300 ho         1 QMD       0.535000
     51 H18         42.6570    14.8090    21.3350 ho         1 QMD       0.469000
     52 O10         42.6640    15.2460    20.4740 oh         1 QMD      -0.512100
     53 O11         35.1630    17.5910    17.6280 o          1 QMD      -0.566000
@<TRIPOS>BOND
     1     1     2 1   
     2     1     3 1   
     3     1    11 1   
     4     1    34 1   
     5     2    35 1   
     6     3     4 1   
     7     3    36 1   
     8     3    37 1   
     9     4    33 1   
    10     5     7 2   
    11     5     9 1   
    12     5    10 1   
    13     6    33 1   
    14     7    38 1   
    15     7    39 1   
    16     8    33 1   
    17     9    12 1   
    18     9    31 1   
    19    10    33 1   
    20    11    13 1   
    21    11    16 1   
    22    11    40 1   
    23    13    14 1   
    24    13    32 1   
    25    13    41 1   
    26    14    27 1   
    27    14    42 1   
    28    14    43 1   
    29    15    17 1   
    30    15    27 1   
    31    15    29 2   
    32    16    44 1   
    33    17    18 2   
    34    17    25 1   
    35    18    19 1   
    36    18    45 1   
    37    19    20 ar  
    38    19    24 ar  
    39    20    21 ar  
    40    20    46 1   
    41    21    22 ar  
    42    21    47 1   
    43    22    23 ar  
    44    22    52 1   
    45    23    24 ar  
    46    23    48 1   
    47    24    27 1   
    48    25    28 1   
    49    25    53 2   
    50    26    28 1   
    51    26    29 1   
    52    26    30 2   
    53    28    49 1   
    54    32    50 1   
    55    51    52 1   
@<TRIPOS>SUBSTRUCTURE
     1 QMD         1 TEMP              0 ****  ****    0 ROOT
