@<TRIPOS>MOLECULE
QMD
   53    55     1     0     0
SMALL
No Charge or Current Charge


@<TRIPOS>ATOM
      1 C1          43.9610    17.9020    14.7770 c3         1 QMD       0.171300
      2 O1          43.5120    16.5370    14.5840 oh         1 QMD      -0.820000
      3 C2          45.4910    18.0260    14.4330 c3         1 QMD       0.194600
      4 O2          45.7140    18.0840    13.0090 os         1 QMD      -0.587400
      5 C3          44.6840    18.3590    10.0780 ce         1 QMD       0.098900
      6 O3          46.9370    15.9780    12.2380 o          1 QMD      -0.827000
      7 C4          43.5110    18.6420    10.7080 c2         1 QMD      -0.501000
      8 O4          44.4660    15.9520    12.3420 o          1 QMD      -0.827000
      9 C5          45.0640    18.9780     8.7110 c          1 QMD       0.715200
     10 O5          45.6240    17.4880    10.6200 os         1 QMD      -0.467500
     11 C6          43.6350    18.3750    16.2450 c3         1 QMD       0.163300
     12 O6          44.2840    19.7560     8.1680 o          1 QMD      -0.734500
     13 C7          42.1150    18.4440    16.6210 c3         1 QMD       0.167300
     14 C8          41.3330    17.1110    16.5080 c3         1 QMD       0.021600
     15 C9          38.8140    17.5120    16.6820 cc         1 QMD       0.163000
     16 O8          44.1560    19.6970    16.4690 oh         1 QMD      -0.635000
     17 C10         37.5520    17.2470    17.2930 cc         1 QMD      -0.283600
     18 C11         37.5190    16.6280    18.5160 cd         1 QMD       0.075000
     19 C12         38.7650    16.3100    19.2040 ca         1 QMD      -0.195000
     20 C13         38.7150    15.7570    20.4970 ca         1 QMD      -0.002000
     21 C14         39.9000    15.5100    21.2030 ca         1 QMD      -0.245000
     22 C15         41.1300    15.8300    20.6220 ca         1 QMD       0.203100
     23 C16         41.1850    16.3730    19.3320 ca         1 QMD      -0.204000
     24 C17         40.0030    16.6020    18.5810 ca         1 QMD       0.097000
     25 C18         36.3260    17.6530    16.5890 c          1 QMD       0.600600
     26 C19         37.7610    18.5330    14.8210 c          1 QMD       0.730400
     27 N1          40.0410    17.1150    17.2550 na         1 QMD      -0.021000
     28 N2          36.5610    18.2660    15.3990 ns         1 QMD      -0.493500
     29 N3          38.9130    18.1260    15.5180 nd         1 QMD      -0.469400
     30 O12         37.8410    19.1010    13.7480 o          1 QMD      -0.504000
     31 O7          46.1370    18.6800     8.1940 o          1 QMD      -0.734500
     32 O9          41.4660    19.4690    15.8440 oh         1 QMD      -0.700000
     33 P1          45.6850    16.7740    12.0700 p5         1 QMD       1.417800
     34 H2          43.4200    18.5750    14.0960 h1         1 QMD       0.077700
     35 H1          43.8390    16.2550    13.6590 ho         1 QMD       0.601000
     36 H4          46.0350    17.1820    14.8790 h1         1 QMD       0.018200
     37 H3          45.9030    18.9380    14.8810 h1         1 QMD       0.018200
     38 H6          43.2330    18.2070    11.6650 ha         1 QMD       0.154500
     39 H5          42.7870    19.3260    10.2670 ha         1 QMD       0.154500
     40 H7          44.1260    17.6780    16.9370 h1         1 QMD       0.009700
     41 H9          42.0720    18.7370    17.6780 h1         1 QMD      -0.016300
     42 H11         41.1340    16.8930    15.4520 h1         1 QMD       0.108200
     43 H12         41.9580    16.2810    16.8550 h1         1 QMD       0.108200
     44 H8          43.3970    20.2910    16.2690 ho         1 QMD       0.414000
     45 H13         36.5650    16.4120    18.9900 ha         1 QMD       0.136000
     46 H14         37.7570    15.5320    20.9620 ha         1 QMD       0.114000
     47 H15         39.8510    15.0880    22.2040 ha         1 QMD       0.115000
     48 H16         42.1680    16.6150    18.9420 ha         1 QMD       0.164000
     49 H17         35.7490    18.5640    14.8840 hn         1 QMD       0.328500
     50 H10         40.5310    19.1720    15.7070 ho         1 QMD       0.535000
     51 H18         42.0490    15.2360    22.1830 ho         1 QMD       0.469000
     52 O10         42.2830    15.6160    21.3100 oh         1 QMD      -0.512100
     53 O11         35.1920    17.4780    17.0020 o          1 QMD      -0.566000
@<TRIPOS>BOND
     1     1     2 1   
     2     1     3 1   
     3     1    11 1   
     4     1    34 1   
     5     2    35 1   
     6     3     4 1   
     7     3    36 1   
     8     3    37 1   
     9     4    33 1   
    10     5     7 2   
    11     5     9 1   
    12     5    10 1   
    13     6    33 1   
    14     7    38 1   
    15     7    39 1   
    16     8    33 1   
    17     9    12 1   
    18     9    31 1   
    19    10    33 1   
    20    11    13 1   
    21    11    16 1   
    22    11    40 1   
    23    13    14 1   
    24    13    32 1   
    25    13    41 1   
    26    14    27 1   
    27    14    42 1   
    28    14    43 1   
    29    15    17 1   
    30    15    27 1   
    31    15    29 2   
    32    16    44 1   
    33    17    18 2   
    34    17    25 1   
    35    18    19 1   
    36    18    45 1   
    37    19    20 ar  
    38    19    24 ar  
    39    20    21 ar  
    40    20    46 1   
    41    21    22 ar  
    42    21    47 1   
    43    22    23 ar  
    44    22    52 1   
    45    23    24 ar  
    46    23    48 1   
    47    24    27 1   
    48    25    28 1   
    49    25    53 2   
    50    26    28 1   
    51    26    29 1   
    52    26    30 2   
    53    28    49 1   
    54    32    50 1   
    55    51    52 1   
@<TRIPOS>SUBSTRUCTURE
     1 QMD         1 TEMP              0 ****  ****    0 ROOT
