@<TRIPOS>MOLECULE
QME
   31    33     1     0     0
SMALL
bcc


@<TRIPOS>ATOM
      1 C5          -1.9870   -17.7360    28.2840 c6         1 QME      -0.108400
      2 C7          -5.5730   -17.5400    25.3700 ca         1 QME      -0.098800
      3 C8          -4.4690   -16.8160    24.8670 ca         1 QME      -0.044200
      4 C10         -2.7030   -15.6190    30.1300 c6         1 QME       0.148800
      5 C13         -1.2880   -16.1880    30.1340 c6         1 QME      -0.115400
      6 C15         -5.4250   -16.7690    22.6970 ca         1 QME      -0.110000
      7 C1          -4.1140   -17.1860    27.0480 cc         1 QME      -0.056300
      8 C11         -6.6160   -17.8740    24.4980 ca         1 QME      -0.077000
      9 C12         -4.3800   -16.4240    23.5340 ca         1 QME      -0.149000
     10 C14         -6.5330   -17.4880    23.1740 ca         1 QME      -0.161000
     11 C2          -3.3880   -17.1120    28.3520 c6         1 QME       0.217700
     12 C3          -5.3190   -17.7600    26.7590 cd         1 QME      -0.171200
     13 C9          -1.2910   -17.6300    29.6380 c6         1 QME      -0.075400
     14 N4          -3.6050   -16.6190    25.9070 na         1 QME      -0.176400
     15 N6          -3.3830   -15.7360    28.8460 n7         1 QME      -0.784200
     16 H1          -2.0630   -18.7800    27.9700 hc         1 QME       0.045700
     17 H2          -1.3860   -17.2210    27.5260 hc         1 QME       0.045700
     18 H3          -2.6960   -14.5660    30.4180 h1         1 QME       0.054700
     19 H4          -3.3070   -16.1430    30.8790 h1         1 QME       0.054700
     20 H5          -0.8640   -16.1270    31.1400 hc         1 QME       0.044200
     21 H6          -0.6510   -15.5780    29.4850 hc         1 QME       0.044200
     22 H8          -7.4770   -18.4270    24.8560 ha         1 QME       0.131000
     23 H9          -3.5260   -15.8700    23.1640 ha         1 QME       0.129000
     24 H10         -7.3330   -17.7410    22.4900 ha         1 QME       0.127000
     25 H11         -3.9760   -17.7000    29.0660 h1         1 QME       0.077700
     26 H12         -5.9490   -18.2810    27.4630 ha         1 QME       0.154000
     27 H13         -1.8100   -18.2660    30.3640 hc         1 QME       0.044200
     28 H14         -0.2710   -18.0140    29.5640 hc         1 QME       0.044200
     29 H15         -2.7160   -16.1520    25.8330 hn         1 QME       0.292700
     30 H16         -2.9110   -15.1380    28.1750 hn         1 QME       0.344800
     31 H7          -5.3880   -16.4800    21.6550 ha         1 QME       0.126000
@<TRIPOS>BOND
     1     1    11 1   
     2     1    13 1   
     3     1    16 1   
     4     1    17 1   
     5     2     3 ar  
     6     2     8 ar  
     7     2    12 1   
     8     3     9 ar  
     9     3    14 1   
    10     4     5 1   
    11     4    15 1   
    12     4    18 1   
    13     4    19 1   
    14     5    13 1   
    15     5    20 1   
    16     5    21 1   
    17     6     9 ar  
    18     6    10 ar  
    19     6    31 1   
    20     7    11 1   
    21     7    12 2   
    22     7    14 1   
    23     8    10 ar  
    24     8    22 1   
    25     9    23 1   
    26    10    24 1   
    27    11    15 1   
    28    11    25 1   
    29    12    26 1   
    30    13    27 1   
    31    13    28 1   
    32    14    29 1   
    33    15    30 1   
@<TRIPOS>SUBSTRUCTURE
     1 QME         1 TEMP              0 ****  ****    0 ROOT
