@<TRIPOS>MOLECULE
QME
   31    33     1     0     0
SMALL
No Charge or Current Charge


@<TRIPOS>ATOM
      1 C5          -2.0000   -17.7450    28.3260 c6         1 QME      -0.108400
      2 C7          -5.5530   -17.5140    25.2860 ca         1 QME      -0.098800
      3 C8          -4.5020   -16.7880    24.8000 ca         1 QME      -0.044200
      4 C10         -2.6870   -15.5980    30.2210 c6         1 QME       0.148800
      5 C13         -1.2630   -16.2040    30.2060 c6         1 QME      -0.115400
      6 C15         -5.4980   -16.7970    22.6070 ca         1 QME      -0.092000
      7 C1          -4.0710   -17.1130    27.0300 cc         1 QME      -0.056300
      8 C11         -6.6230   -17.9200    24.4790 ca         1 QME      -0.059000
      9 C12         -4.4370   -16.4060    23.4540 ca         1 QME      -0.131000
     10 C14         -6.5860   -17.5500    23.1170 ca         1 QME      -0.143000
     11 C2          -3.4090   -17.0970    28.3930 c6         1 QME       0.217700
     12 C3          -5.2740   -17.7130    26.6850 cd         1 QME      -0.221200
     13 C9          -1.2860   -17.6650    29.6970 c6         1 QME      -0.075400
     14 N4          -3.6040   -16.5370    25.8270 na         1 QME      -0.226700
     15 N6          -3.3230   -15.7000    28.8850 n7         1 QME      -0.839400
     16 H1          -2.0870   -18.7940    28.0120 hc         1 QME       0.045700
     17 H2          -1.3880   -17.2410    27.5660 hc         1 QME       0.045700
     18 H3          -2.6360   -14.5420    30.5280 h1         1 QME       0.054700
     19 H4          -3.3040   -16.1280    30.9640 h1         1 QME       0.054700
     20 H5          -0.8320   -16.1650    31.2160 hc         1 QME       0.044200
     21 H6          -0.6090   -15.5960    29.5640 hc         1 QME       0.044200
     22 H8          -7.4500   -18.4980    24.8860 ha         1 QME       0.113000
     23 H9          -3.5990   -15.8290    23.0720 ha         1 QME       0.111000
     24 H10         -7.3970   -17.8450    22.4550 ha         1 QME       0.109000
     25 H11         -4.0230   -17.6820    29.0970 h1         1 QME       0.077700
     26 H12         -5.9100   -18.2570    27.3790 ha         1 QME       0.204000
     27 H13         -1.8070   -18.3030    30.4240 hc         1 QME       0.044200
     28 H14         -0.2610   -18.0540    29.6140 hc         1 QME       0.044200
     29 H15         -2.7380   -16.0210    25.7250 hn         1 QME       0.343000
     30 H16         -2.7590   -15.1650    28.2170 hn         1 QME       0.400000
     31 H7          -5.4800   -16.5180    21.5550 ha         1 QME       0.108000
@<TRIPOS>BOND
     1     1    11 1   
     2     1    13 1   
     3     1    16 1   
     4     1    17 1   
     5     2     3 ar  
     6     2     8 ar  
     7     2    12 1   
     8     3     9 ar  
     9     3    14 1   
    10     4     5 1   
    11     4    15 1   
    12     4    18 1   
    13     4    19 1   
    14     5    13 1   
    15     5    20 1   
    16     5    21 1   
    17     6     9 ar  
    18     6    10 ar  
    19     6    31 1   
    20     7    11 1   
    21     7    12 2   
    22     7    14 1   
    23     8    10 ar  
    24     8    22 1   
    25     9    23 1   
    26    10    24 1   
    27    11    15 1   
    28    11    25 1   
    29    12    26 1   
    30    13    27 1   
    31    13    28 1   
    32    14    29 1   
    33    15    30 1   
@<TRIPOS>SUBSTRUCTURE
     1 QME         1 TEMP              0 ****  ****    0 ROOT
