@<TRIPOS>MOLECULE
QMF
   47    50     1     0     0
SMALL
No Charge or Current Charge


@<TRIPOS>ATOM
      1 C18        -45.5150   -29.4510     4.0020 ca         1 QMF      -0.039000
      2 C17        -45.6440   -28.8170     2.7430 ca         1 QMF      -0.158600
      3 C15        -44.4610   -28.5900     1.8230 c          1 QMF       0.606700
      4 C13        -41.9820   -28.9490     1.5400 c3         1 QMF       0.176200
      5 C12        -41.5410   -30.3090     1.0450 cc         1 QMF      -0.138400
      6 C11        -41.4830   -30.6700    -0.3680 ca         1 QMF      -0.047800
      7 C10        -41.8670   -29.8640    -1.4590 ca         1 QMF      -0.075000
      8 C20        -47.9150   -29.2110     4.4170 ca         1 QMF      -0.004000
      9 C19        -46.6400   -29.6420     4.8220 ca         1 QMF      -0.172000
     10 C04        -41.1370   -31.3990     1.8360 cd         1 QMF      -0.050600
     11 C06        -41.0130   -31.9500    -0.5940 ca         1 QMF      -0.194000
     12 C07        -40.8930   -32.4770    -1.8890 ca         1 QMF      -0.085000
     13 C08        -41.2660   -31.6770    -2.9840 ca         1 QMF      -0.132000
     14 C09        -41.7540   -30.3730    -2.7680 ca         1 QMF      -0.134000
     15 C25        -52.4610   -29.3870     6.5230 cx         1 QMF       0.065700
     16 C26        -53.3580   -30.5630     6.2250 cx         1 QMF      -0.135900
     17 C27        -53.1160   -30.1410     7.6540 cx         1 QMF      -0.135900
     18 C28        -48.0490   -28.5810     3.1640 ca         1 QMF      -0.172000
     19 C29        -46.9270   -28.3870     2.3390 ca         1 QMF      -0.039000
     20 N14        -43.2380   -29.0210     2.2750 ns         1 QMF      -0.480900
     21 N21        -49.0010   -29.4420     5.3050 ns         1 QMF      -0.162000
     22 N24        -51.0470   -29.5630     6.3370 ns         1 QMF      -0.508900
     23 O01        -40.7320   -32.4800     3.8760 o          1 QMF      -0.710500
     24 O03        -41.5610   -30.5140     3.9940 o          1 QMF      -0.710500
     25 O16        -44.5810   -28.0490     0.7310 o          1 QMF      -0.652100
     26 O23        -50.9000   -28.5730     4.2920 o          1 QMF      -0.618100
     27 S05        -40.5990   -32.8190     0.8860 ss         1 QMF       0.077400
     28 H181       -44.5530   -29.8040     4.3640 ha         1 QMF       0.136000
     29 H132       -41.2120   -28.5520     2.2150 h1         1 QMF       0.053700
     30 H131       -42.0700   -28.2350     0.7140 h1         1 QMF       0.053700
     31 H101       -42.2560   -28.8600    -1.3120 ha         1 QMF       0.117000
     32 H191       -46.5150   -30.1310     5.7860 ha         1 QMF       0.123500
     33 H071       -40.5190   -33.4870    -2.0450 ha         1 QMF       0.104000
     34 H081       -41.1800   -32.0660    -3.9960 ha         1 QMF       0.091000
     35 H091       -42.0480   -29.7570    -3.6150 ha         1 QMF       0.095000
     36 H251       -52.8290   -28.3850     6.2930 h1         1 QMF       0.083700
     37 H262       -54.3330   -30.3550     5.7920 hc         1 QMF       0.076950
     38 H261       -52.8940   -31.4850     5.8820 hc         1 QMF       0.076950
     39 H272       -53.9300   -29.6490     8.1820 hc         1 QMF       0.076950
     40 H271       -52.4940   -30.7820     8.2740 hc         1 QMF       0.076950
     41 H281       -49.0120   -28.2330     2.8070 ha         1 QMF       0.123500
     42 H291       -47.0620   -27.8970     1.3760 ha         1 QMF       0.136000
     43 H141       -43.2000   -29.4700     3.1820 hn         1 QMF       0.368500
     44 H211       -48.7320   -29.9160     6.1570 hn         1 QMF       0.140000
     45 H241       -50.5080   -30.0220     7.0610 hn         1 QMF       0.310500
     46 C02        -41.1390   -31.4580     3.3390 c          1 QMF       0.726200
     47 C22        -50.3530   -29.1430     5.2250 c          1 QMF       0.660100
@<TRIPOS>BOND
     1     1     2 ar  
     2     1     9 ar  
     3     1    28 1   
     4     2     3 1   
     5     2    19 ar  
     6     3    20 1   
     7     3    25 2   
     8     4     5 1   
     9     4    20 1   
    10     4    29 1   
    11     4    30 1   
    12     5     6 1   
    13     5    10 2   
    14     6     7 ar  
    15     6    11 ar  
    16     7    14 ar  
    17     7    31 1   
    18     8     9 ar  
    19     8    18 ar  
    20     8    21 1   
    21     9    32 1   
    22    10    27 1   
    23    10    46 1   
    24    11    12 ar  
    25    11    27 1   
    26    12    13 ar  
    27    12    33 1   
    28    13    14 ar  
    29    13    34 1   
    30    14    35 1   
    31    15    16 1   
    32    15    17 1   
    33    15    22 1   
    34    15    36 1   
    35    16    17 1   
    36    16    37 1   
    37    16    38 1   
    38    17    39 1   
    39    17    40 1   
    40    18    19 ar  
    41    18    41 1   
    42    19    42 1   
    43    20    43 1   
    44    21    44 1   
    45    21    47 1   
    46    22    45 1   
    47    22    47 1   
    48    23    46 1   
    49    24    46 1   
    50    26    47 2   
@<TRIPOS>SUBSTRUCTURE
     1 QMF         1 TEMP              0 ****  ****    0 ROOT
