@<TRIPOS>MOLECULE
QMF
   47    50     1     0     0
SMALL
abcg2


@<TRIPOS>ATOM
      1 C18        -45.4000   -28.9690     4.2870 ca         1 QMF      -0.039000
      2 C17        -45.5490   -28.8140     2.9040 ca         1 QMF      -0.158600
      3 C15        -44.3950   -28.6510     1.9680 c          1 QMF       0.606700
      4 C13        -41.9840   -29.0310     1.6380 c3         1 QMF       0.176200
      5 C12        -41.6940   -30.3880     1.0420 cc         1 QMF      -0.138400
      6 C11        -41.6310   -30.6200    -0.3790 ca         1 QMF      -0.047800
      7 C10        -41.8270   -29.7180    -1.4380 ca         1 QMF      -0.075000
      8 C20        -47.8030   -29.0980     4.5730 ca         1 QMF      -0.004000
      9 C19        -46.5040   -29.1060     5.1060 ca         1 QMF      -0.172000
     10 C04        -41.4530   -31.5220     1.7680 cd         1 QMF      -0.050600
     11 C06        -41.3320   -31.9700    -0.6870 ca         1 QMF      -0.194000
     12 C07        -41.2300   -32.4140    -2.0060 ca         1 QMF      -0.085000
     13 C08        -41.4280   -31.5020    -3.0290 ca         1 QMF      -0.132000
     14 C09        -41.7260   -30.1600    -2.7440 ca         1 QMF      -0.134000
     15 C25        -52.3970   -29.4490     6.2950 cx         1 QMF       0.065700
     16 C26        -53.0950   -30.7490     6.0060 cx         1 QMF      -0.135900
     17 C27        -53.1150   -30.1680     7.3970 cx         1 QMF      -0.135900
     18 C28        -47.9610   -28.9430     3.1900 ca         1 QMF      -0.172000
     19 C29        -46.8420   -28.7990     2.3830 ca         1 QMF      -0.039000
     20 N14        -43.1900   -29.0160     2.4460 ns         1 QMF      -0.480900
     21 N21        -48.8550   -29.2310     5.4770 ns         1 QMF      -0.162000
     22 N24        -50.9670   -29.4220     6.3550 ns         1 QMF      -0.508900
     23 O01        -41.0010   -32.8830     3.6240 o          1 QMF      -0.710500
     24 O03        -41.8070   -30.8240     4.0120 o          1 QMF      -0.710500
     25 O16        -44.5550   -28.1930     0.8290 o          1 QMF      -0.652100
     26 O23        -50.6950   -29.3440     4.0960 o          1 QMF      -0.618100
     27 S05        -41.1300   -32.9130     0.7560 ss         1 QMF       0.077400
     28 H181       -44.4200   -28.9620     4.7440 ha         1 QMF       0.136000
     29 H132       -41.1530   -28.7280     2.2760 h1         1 QMF       0.053700
     30 H131       -42.0920   -28.2910     0.8510 h1         1 QMF       0.053700
     31 H101       -42.0640   -28.6820    -1.2340 ha         1 QMF       0.117000
     32 H191       -46.3710   -29.2150     6.1760 ha         1 QMF       0.123500
     33 H071       -41.0020   -33.4500    -2.2240 ha         1 QMF       0.104000
     34 H081       -41.3530   -31.8280    -4.0590 ha         1 QMF       0.091000
     35 H091       -41.8800   -29.4640    -3.5590 ha         1 QMF       0.095000
     36 H251       -52.8580   -28.5480     5.9070 h1         1 QMF       0.083700
     37 H262       -54.0010   -30.7100     5.4170 hc         1 QMF       0.076950
     38 H261       -52.4660   -31.6110     5.8350 hc         1 QMF       0.076950
     39 H272       -54.0330   -29.7310     7.7640 hc         1 QMF       0.076950
     40 H271       -52.5050   -30.6510     8.1490 hc         1 QMF       0.076950
     41 H281       -48.9480   -28.9350     2.7620 ha         1 QMF       0.123500
     42 H291       -46.9710   -28.6730     1.3160 ha         1 QMF       0.136000
     43 H141       -43.0980   -29.5890     3.2790 hn         1 QMF       0.368500
     44 H211       -48.5720   -29.2880     6.4440 hn         1 QMF       0.140000
     45 H241       -50.5420   -29.2490     7.2530 hn         1 QMF       0.310500
     46 C02        -41.4170   -31.7560     3.2590 c          1 QMF       0.726200
     47 C22        -50.2100   -29.3290     5.2250 c          1 QMF       0.660100
@<TRIPOS>BOND
     1     1     2 ar  
     2     1     9 ar  
     3     1    28 1   
     4     2     3 1   
     5     2    19 ar  
     6     3    20 1   
     7     3    25 2   
     8     4     5 1   
     9     4    20 1   
    10     4    29 1   
    11     4    30 1   
    12     5     6 1   
    13     5    10 2   
    14     6     7 ar  
    15     6    11 ar  
    16     7    14 ar  
    17     7    31 1   
    18     8     9 ar  
    19     8    18 ar  
    20     8    21 1   
    21     9    32 1   
    22    10    27 1   
    23    10    46 1   
    24    11    12 ar  
    25    11    27 1   
    26    12    13 ar  
    27    12    33 1   
    28    13    14 ar  
    29    13    34 1   
    30    14    35 1   
    31    15    16 1   
    32    15    17 1   
    33    15    22 1   
    34    15    36 1   
    35    16    17 1   
    36    16    37 1   
    37    16    38 1   
    38    17    39 1   
    39    17    40 1   
    40    18    19 ar  
    41    18    41 1   
    42    19    42 1   
    43    20    43 1   
    44    21    44 1   
    45    21    47 1   
    46    22    45 1   
    47    22    47 1   
    48    23    46 1   
    49    24    46 1   
    50    26    47 2   
@<TRIPOS>SUBSTRUCTURE
     1 QMF         1 TEMP              0 ****  ****    0 ROOT
