@<TRIPOS>MOLECULE
QMG
   44    47     1     0     0
SMALL
No Charge or Current Charge


@<TRIPOS>ATOM
      1 C13         14.2490    12.4510    -7.8650 cx         1 QMG      -0.139400
      2 C15         12.0700     6.9550    -7.8180 ca         1 QMG      -0.052000
      3 C17         13.3810     5.1510    -8.8170 ca         1 QMG      -0.045300
      4 C21         15.3440     7.0760   -13.5870 cc         1 QMG       0.364900
      5 C22         16.5670     6.4800   -14.0350 cc         1 QMG      -0.209000
      6 C03         17.3680     4.7090   -10.9140 cc         1 QMG      -0.263300
      7 C04         16.4530     4.8710    -9.8710 cd         1 QMG      -0.119000
      8 C05         15.3620     5.7150   -10.2670 cd         1 QMG      -0.095200
      9 C06         14.2200     6.1110    -9.4290 ca         1 QMG      -0.016800
     10 C07         13.9670     7.4840    -9.2360 ca         1 QMG      -0.064000
     11 C08         12.8900     7.9260    -8.4310 ca         1 QMG      -0.152600
     12 C09         12.5960     9.3960    -8.2080 c          1 QMG       0.613700
     13 C11         13.2820    11.7270    -8.7690 cx         1 QMG       0.056700
     14 C12         14.3860    12.5650    -9.3640 cx         1 QMG      -0.139400
     15 C16         12.3130     5.5860    -8.0120 ca         1 QMG      -0.126000
     16 C19         15.6120     6.1040   -11.6060 cd         1 QMG       0.386500
     17 C23         17.3340     5.6640   -13.2230 cd         1 QMG      -0.057000
     18 C25         18.9260     3.1690    -9.5430 c3         1 QMG      -0.182100
     19 N10         13.4050    10.2980    -8.8670 ns         1 QMG      -0.482900
     20 N20         14.8080     6.9290   -12.3830 nd         1 QMG      -0.640000
     21 N24         16.8060     5.4790   -11.9380 na         1 QMG      -0.010400
     22 O01         19.3790     3.7950   -11.8000 o          1 QMG      -0.568100
     23 O14         11.6880     9.7750    -7.4780 o          1 QMG      -0.602100
     24 H1          13.8770    13.3160    -7.3210 hc         1 QMG       0.076700
     25 H2          14.9880    11.8600    -7.3300 hc         1 QMG       0.076700
     26 H3          11.2340     7.2580    -7.1910 ha         1 QMG       0.136000
     27 H4          14.7620     7.7100   -14.2430 h4         1 QMG       0.034100
     28 H5          16.8840     6.6900   -15.0510 ha         1 QMG       0.144000
     29 H6          16.5420     4.4290    -8.8810 ha         1 QMG       0.208000
     30 H7          14.6310     8.1960    -9.7190 ha         1 QMG       0.119000
     31 H8          12.2580    12.1010    -8.8380 h1         1 QMG       0.093700
     32 H9          15.2220    12.0550    -9.8360 hc         1 QMG       0.076700
     33 H10         14.1070    13.5080    -9.8280 hc         1 QMG       0.076700
     34 H11         11.6610     4.8590    -7.5330 ha         1 QMG       0.115000
     35 H12         14.3920     3.2760    -8.3780 hc         1 QMG       0.044700
     36 H13         12.6840     3.0840    -8.7890 hc         1 QMG       0.044700
     37 H14         13.8540     3.4230   -10.0630 hc         1 QMG       0.044700
     38 H15         18.2650     5.1840   -13.5000 h4         1 QMG       0.183000
     39 H16         19.8580     2.5950    -9.5920 hc         1 QMG       0.064367
     40 H17         18.9460     3.8980    -8.7250 hc         1 QMG       0.064367
     41 H18         18.0750     2.5330    -9.2760 hc         1 QMG       0.064367
     42 H19         14.1230     9.9070    -9.4620 hn         1 QMG       0.319500
     43 C18         13.5910     3.6530    -9.0240 c3         1 QMG      -0.050800
     44 C02         18.6140     3.8960   -10.8500 c          1 QMG       0.608300
@<TRIPOS>BOND
     1     1    13 1   
     2     1    14 1   
     3     1    24 1   
     4     1    25 1   
     5     2    11 ar  
     6     2    15 ar  
     7     2    26 1   
     8     3     9 ar  
     9     3    15 ar  
    10     3    43 1   
    11     4     5 1   
    12     4    20 2   
    13     4    27 1   
    14     5    17 2   
    15     5    28 1   
    16     6     7 2   
    17     6    21 1   
    18     6    44 1   
    19     7     8 1   
    20     7    29 1   
    21     8     9 1   
    22     8    16 2   
    23     9    10 ar  
    24    10    11 ar  
    25    10    30 1   
    26    11    12 1   
    27    12    19 1   
    28    12    23 2   
    29    13    14 1   
    30    13    19 1   
    31    13    31 1   
    32    14    32 1   
    33    14    33 1   
    34    15    34 1   
    35    16    20 1   
    36    16    21 1   
    37    17    21 1   
    38    17    38 1   
    39    18    39 1   
    40    18    40 1   
    41    18    41 1   
    42    18    44 1   
    43    19    42 1   
    44    22    44 2   
    45    35    43 1   
    46    36    43 1   
    47    37    43 1   
@<TRIPOS>SUBSTRUCTURE
     1 QMG         1 TEMP              0 ****  ****    0 ROOT
