@<TRIPOS>MOLECULE
QMG
   44    47     1     0     0
SMALL
abcg2


@<TRIPOS>ATOM
      1 C13         13.4070    12.5790    -7.7860 cx         1 QMG      -0.139400
      2 C15         12.2210     7.1280    -7.8160 ca         1 QMG      -0.052000
      3 C17         13.5600     5.2390    -8.5640 ca         1 QMG      -0.045300
      4 C21         15.4070     7.1220   -13.5590 cc         1 QMG       0.364900
      5 C22         16.5640     6.5020   -14.0770 cc         1 QMG      -0.209000
      6 C03         17.2910     4.5760   -11.0150 cc         1 QMG      -0.263300
      7 C04         16.4260     4.7260    -9.9270 cd         1 QMG      -0.119000
      8 C05         15.4110     5.6360   -10.2340 cd         1 QMG      -0.095200
      9 C06         14.3160     6.1100    -9.3760 ca         1 QMG      -0.016800
     10 C07         14.0060     7.4750    -9.3790 ca         1 QMG      -0.064000
     11 C08         12.9710     7.9970    -8.6080 ca         1 QMG      -0.152600
     12 C09         12.6090     9.4490    -8.6150 c          1 QMG       0.613700
     13 C11         13.3740    11.7300    -9.0270 cx         1 QMG       0.056700
     14 C12         14.5380    12.6360    -8.7810 cx         1 QMG      -0.139400
     15 C16         12.5240     5.7770    -7.7960 ca         1 QMG      -0.126000
     16 C19         15.6510     6.0620   -11.5580 cd         1 QMG       0.386500
     17 C23         17.2570     5.6330   -13.2870 cd         1 QMG      -0.057000
     18 C25         18.8300     2.8950    -9.9480 c3         1 QMG      -0.182100
     19 N10         13.5950    10.3180    -8.9250 ns         1 QMG      -0.482900
     20 N20         14.9650     6.9060   -12.3370 nd         1 QMG      -0.640000
     21 N24         16.8070     5.4040   -12.0230 na         1 QMG      -0.010400
     22 O01         19.1550     3.7280   -12.1660 o          1 QMG      -0.568100
     23 O14         11.4660     9.8270    -8.3440 o          1 QMG      -0.602100
     24 H1          12.7230    13.4150    -7.7310 hc         1 QMG       0.076700
     25 H2          13.5920    12.0690    -6.8500 hc         1 QMG       0.076700
     26 H3          11.4060     7.5190    -7.2220 ha         1 QMG       0.136000
     27 H4          14.8360     7.8080   -14.1740 h4         1 QMG       0.034100
     28 H5          16.8990     6.7050   -15.0830 ha         1 QMG       0.144000
     29 H6          16.5540     4.2210    -8.9850 ha         1 QMG       0.208000
     30 H7          14.5820     8.1220   -10.0250 ha         1 QMG       0.119000
     31 H8          12.6660    12.0120    -9.7980 h1         1 QMG       0.093700
     32 H9          15.4740    12.1710    -8.4990 hc         1 QMG       0.076700
     33 H10         14.6350    13.5110    -9.4090 hc         1 QMG       0.076700
     34 H11         11.9350     5.1090    -7.1790 ha         1 QMG       0.115000
     35 H12         14.6530     3.5150    -7.8650 hc         1 QMG       0.044700
     36 H13         12.9340     3.2390    -8.1230 hc         1 QMG       0.044700
     37 H14         14.0410     3.3560    -9.5030 hc         1 QMG       0.044700
     38 H15         18.1460     5.1010   -13.5810 h4         1 QMG       0.183000
     39 H16         19.7580     2.3680   -10.1590 hc         1 QMG       0.064367
     40 H17         18.9520     3.5050    -9.0520 hc         1 QMG       0.064367
     41 H18         18.0400     2.1690    -9.7460 hc         1 QMG       0.064367
     42 H19         14.5220     9.9680    -9.1030 hn         1 QMG       0.319500
     43 C18         13.8090     3.7570    -8.5150 c3         1 QMG      -0.050800
     44 C02         18.4680     3.7510   -11.1400 c          1 QMG       0.608300
@<TRIPOS>BOND
     1     1    13 1   
     2     1    14 1   
     3     1    24 1   
     4     1    25 1   
     5     2    11 ar  
     6     2    15 ar  
     7     2    26 1   
     8     3     9 ar  
     9     3    15 ar  
    10     3    43 1   
    11     4     5 1   
    12     4    20 2   
    13     4    27 1   
    14     5    17 2   
    15     5    28 1   
    16     6     7 2   
    17     6    21 1   
    18     6    44 1   
    19     7     8 1   
    20     7    29 1   
    21     8     9 1   
    22     8    16 2   
    23     9    10 ar  
    24    10    11 ar  
    25    10    30 1   
    26    11    12 1   
    27    12    19 1   
    28    12    23 2   
    29    13    14 1   
    30    13    19 1   
    31    13    31 1   
    32    14    32 1   
    33    14    33 1   
    34    15    34 1   
    35    16    20 1   
    36    16    21 1   
    37    17    21 1   
    38    17    38 1   
    39    18    39 1   
    40    18    40 1   
    41    18    41 1   
    42    18    44 1   
    43    19    42 1   
    44    22    44 2   
    45    35    43 1   
    46    36    43 1   
    47    37    43 1   
@<TRIPOS>SUBSTRUCTURE
     1 QMG         1 TEMP              0 ****  ****    0 ROOT
