@<TRIPOS>MOLECULE
QMH
   49    49     1     0     0
SMALL
No Charge or Current Charge


@<TRIPOS>ATOM
      1 CG2         19.4650    21.4910    18.0750 c3         1 QMH      -0.078600
      2 CB          20.7390    20.6160    17.9810 c3         1 QMH      -0.053700
      3 CG1         21.2390    20.5220    16.5200 c3         1 QMH      -0.078600
      4 CA          20.5760    19.2140    18.6480 c3         1 QMH      -0.043300
      5 C           20.4140    19.3210    20.2000 c          1 QMH       0.715000
      6 O           19.2910    19.2520    20.6830 o          1 QMH      -0.726500
      7 OXT         21.4300    19.3560    20.8800 o          1 QMH      -0.726500
      8 N           19.4660    18.4220    18.0560 ns         1 QMH      -0.450900
      9 CAS         19.5800    17.4980    17.0390 c          1 QMH       0.603700
     10 OAE         20.6660    17.2210    16.5430 o          1 QMH      -0.652100
     11 CAU         18.2960    16.8390    16.5740 ca         1 QMH      -0.167600
     12 CAJ         17.0320    17.1760    17.1190 ca         1 QMH      -0.039500
     13 CAH         15.8630    16.5440    16.6590 ca         1 QMH      -0.193000
     14 CAI         18.3520    15.8570    15.5600 ca         1 QMH      -0.039500
     15 CAG         17.1810    15.2290    15.1040 ca         1 QMH      -0.193000
     16 CAT         15.9340    15.5650    15.6480 ca         1 QMH       0.142100
     17 OAQ         14.8200    14.9140    15.1600 os         1 QMH      -0.357100
     18 CAO         13.4970    15.1890    15.6520 c3         1 QMH       0.167600
     19 CAN         12.5150    14.2840    14.8840 c3         1 QMH      -0.080400
     20 CAM         11.0460    14.4820    15.3200 c3         1 QMH      -0.075400
     21 CAL         10.0590    13.5760    14.5520 c3         1 QMH      -0.074400
     22 CAK          8.5920    13.7740    14.9890 c3         1 QMH      -0.076400
     23 CAA          7.6070    12.8700    14.2230 c3         1 QMH      -0.088100
     24 H1          19.1560    21.6280    19.1170 hc         1 QMH       0.021533
     25 H2          19.6490    22.4850    17.6490 hc         1 QMH       0.021533
     26 H3          18.6310    21.0370    17.5240 hc         1 QMH       0.021533
     27 H4          21.5250    21.1390    18.5400 hc         1 QMH       0.062700
     28 H5          21.4660    21.5200    16.1260 hc         1 QMH       0.021533
     29 H6          22.1540    19.9210    16.4610 hc         1 QMH       0.021533
     30 H7          20.4820    20.0670    15.8720 hc         1 QMH       0.021533
     31 H8          21.5080    18.6580    18.4900 h1         1 QMH       0.062700
     32 H10         18.5440    18.5530    18.4520 hn         1 QMH       0.327500
     33 H11         16.9330    17.9290    17.8970 ha         1 QMH       0.135000
     34 H12         14.9120    16.8300    17.1010 ha         1 QMH       0.113000
     35 H13         19.3070    15.5760    15.1190 ha         1 QMH       0.135000
     36 H14         17.2410    14.4750    14.3240 ha         1 QMH       0.113000
     37 H15         13.4300    14.9730    16.7260 h1         1 QMH       0.034200
     38 H16         13.2320    16.2410    15.4860 h1         1 QMH       0.034200
     39 H17         12.6040    14.4900    13.8100 hc         1 QMH       0.051700
     40 H18         12.8000    13.2360    15.0370 hc         1 QMH       0.051700
     41 H19         10.9600    14.2790    16.3950 hc         1 QMH       0.039200
     42 H20         10.7640    15.5310    15.1690 hc         1 QMH       0.039200
     43 H21         10.1460    13.7790    13.4770 hc         1 QMH       0.037700
     44 H22         10.3410    12.5260    14.7030 hc         1 QMH       0.037700
     45 H23          8.5010    13.5690    16.0630 hc         1 QMH       0.037200
     46 H24          8.3050    14.8220    14.8370 hc         1 QMH       0.037200
     47 H25          6.5800    13.0460    14.5660 hc         1 QMH       0.029700
     48 H26          7.6480    13.0760    13.1460 hc         1 QMH       0.029700
     49 H27          7.8460    11.8120    14.3830 hc         1 QMH       0.029700
@<TRIPOS>BOND
     1     1     2 1   
     2     1    24 1   
     3     1    25 1   
     4     1    26 1   
     5     2     3 1   
     6     2     4 1   
     7     2    27 1   
     8     3    28 1   
     9     3    29 1   
    10     3    30 1   
    11     4     5 1   
    12     4     8 1   
    13     4    31 1   
    14     5     6 1   
    15     5     7 1   
    16     8     9 1   
    17     8    32 1   
    18     9    10 2   
    19     9    11 1   
    20    11    12 ar  
    21    11    14 ar  
    22    12    13 ar  
    23    12    33 1   
    24    13    16 ar  
    25    13    34 1   
    26    14    15 ar  
    27    14    35 1   
    28    15    16 ar  
    29    15    36 1   
    30    16    17 1   
    31    17    18 1   
    32    18    19 1   
    33    18    37 1   
    34    18    38 1   
    35    19    20 1   
    36    19    39 1   
    37    19    40 1   
    38    20    21 1   
    39    20    41 1   
    40    20    42 1   
    41    21    22 1   
    42    21    43 1   
    43    21    44 1   
    44    22    23 1   
    45    22    45 1   
    46    22    46 1   
    47    23    47 1   
    48    23    48 1   
    49    23    49 1   
@<TRIPOS>SUBSTRUCTURE
     1 QMH         1 TEMP              0 ****  ****    0 ROOT
