@<TRIPOS>MOLECULE
QMH
   49    49     1     0     0
SMALL
bcc


@<TRIPOS>ATOM
      1 CG2         19.8390    21.5670    17.9090 c3         1 QMH      -0.078600
      2 CB          20.8860    20.4660    18.0520 c3         1 QMH      -0.053700
      3 CG1         21.5590    20.1970    16.7100 c3         1 QMH      -0.078600
      4 CA          20.3030    19.1870    18.6780 c3         1 QMH      -0.043300
      5 C           19.7350    19.4900    20.0920 c          1 QMH       0.925600
      6 O           18.5060    19.3550    20.2530 o          1 QMH      -0.831800
      7 OXT         20.5710    19.8650    20.9320 o          1 QMH      -0.831800
      8 N           19.2680    18.5900    17.8630 ns         1 QMH      -0.517900
      9 CAS         19.4200    17.5170    17.0750 c          1 QMH       0.670700
     10 OAE         20.5100    17.0460    16.7660 o          1 QMH      -0.652100
     11 CAU         18.1550    16.9140    16.5530 ca         1 QMH      -0.167600
     12 CAJ         16.9380    16.9930    17.2210 ca         1 QMH      -0.057500
     13 CAH         15.7920    16.3960    16.7150 ca         1 QMH      -0.211000
     14 CAI         18.2000    16.1980    15.3540 ca         1 QMH      -0.057500
     15 CAG         17.0680    15.6100    14.8310 ca         1 QMH      -0.211000
     16 CAT         15.8470    15.7030    15.5070 ca         1 QMH       0.142100
     17 OAQ         14.7990    15.0970    14.9300 os         1 QMH      -0.333900
     18 CAO         13.5300    15.1560    15.5670 c3         1 QMH       0.144400
     19 CAN         12.5310    14.3850    14.7310 c3         1 QMH      -0.080400
     20 CAM         11.1490    14.4000    15.3730 c3         1 QMH      -0.075400
     21 CAL         10.1140    13.6180    14.5750 c3         1 QMH      -0.074400
     22 CAK          8.7330    13.6290    15.2190 c3         1 QMH      -0.076400
     23 CAA          7.7020    12.8410    14.4230 c3         1 QMH      -0.088100
     24 H1          19.4230    21.8710    18.8700 hc         1 QMH       0.021533
     25 H2          20.2770    22.4550    17.4500 hc         1 QMH       0.021533
     26 H3          19.0110    21.2470    17.2730 hc         1 QMH       0.021533
     27 H4          21.6560    20.8140    18.7470 hc         1 QMH       0.062700
     28 H5          22.0590    21.0970    16.3490 hc         1 QMH       0.021533
     29 H6          22.3050    19.4060    16.7870 hc         1 QMH       0.021533
     30 H7          20.8330    19.9000    15.9520 hc         1 QMH       0.021533
     31 H8          21.1150    18.4610    18.7820 h1         1 QMH       0.062700
     32 H10         18.3380    18.8670    18.1350 hn         1 QMH       0.327500
     33 H11         16.8600    17.4990    18.1760 ha         1 QMH       0.153000
     34 H12         14.8730    16.4760    17.2790 ha         1 QMH       0.131000
     35 H13         19.1360    16.1080    14.8190 ha         1 QMH       0.153000
     36 H14         17.1160    15.0680    13.8940 ha         1 QMH       0.131000
     37 H15         13.5910    14.7240    16.5730 h1         1 QMH       0.034200
     38 H16         13.2080    16.1980    15.6750 h1         1 QMH       0.034200
     39 H17         12.4770    14.8190    13.7290 hc         1 QMH       0.051700
     40 H18         12.8710    13.3510    14.6150 hc         1 QMH       0.051700
     41 H19         11.2120    13.9870    16.3860 hc         1 QMH       0.039200
     42 H20         10.8100    15.4360    15.4880 hc         1 QMH       0.039200
     43 H21         10.0460    14.0300    13.5630 hc         1 QMH       0.037700
     44 H22         10.4510    12.5820    14.4600 hc         1 QMH       0.037700
     45 H23          8.8040    13.2210    16.2320 hc         1 QMH       0.037200
     46 H24          8.3960    14.6640    15.3330 hc         1 QMH       0.037200
     47 H25          6.7230    12.8630    14.9030 hc         1 QMH       0.029700
     48 H26          7.5850    13.2470    13.4170 hc         1 QMH       0.029700
     49 H27          7.9970    11.7950    14.3230 hc         1 QMH       0.029700
@<TRIPOS>BOND
     1     1     2 1   
     2     1    24 1   
     3     1    25 1   
     4     1    26 1   
     5     2     3 1   
     6     2     4 1   
     7     2    27 1   
     8     3    28 1   
     9     3    29 1   
    10     3    30 1   
    11     4     5 1   
    12     4     8 1   
    13     4    31 1   
    14     5     6 1   
    15     5     7 1   
    16     8     9 1   
    17     8    32 1   
    18     9    10 2   
    19     9    11 1   
    20    11    12 ar  
    21    11    14 ar  
    22    12    13 ar  
    23    12    33 1   
    24    13    16 ar  
    25    13    34 1   
    26    14    15 ar  
    27    14    35 1   
    28    15    16 ar  
    29    15    36 1   
    30    16    17 1   
    31    17    18 1   
    32    18    19 1   
    33    18    37 1   
    34    18    38 1   
    35    19    20 1   
    36    19    39 1   
    37    19    40 1   
    38    20    21 1   
    39    20    41 1   
    40    20    42 1   
    41    21    22 1   
    42    21    43 1   
    43    21    44 1   
    44    22    23 1   
    45    22    45 1   
    46    22    46 1   
    47    23    47 1   
    48    23    48 1   
    49    23    49 1   
@<TRIPOS>SUBSTRUCTURE
     1 QMH         1 TEMP              0 ****  ****    0 ROOT
