@<TRIPOS>MOLECULE
QMI
   33    34     1     0     0
SMALL
No Charge or Current Charge


@<TRIPOS>ATOM
      1 ClJ          0.6480    -2.2000     2.0900 cl         1 QMI      -0.142500
      2 CAE          0.9050    -1.1500     0.6930 ca         1 QMI       0.203500
      3 CAD          2.0730    -0.3730     0.7370 ca         1 QMI      -0.112500
      4 CAC          2.3580     0.5400    -0.2800 ca         1 QMI       0.030100
      5 BrU          3.9480     1.6010    -0.2010 br         1 QMI      -0.060100
      6 CAB          1.4670     0.6900    -1.3440 ca         1 QMI      -0.112500
      7 CAA          0.2920    -0.0780    -1.4100 ca         1 QMI       0.203500
      8 ClI         -0.7450     0.2770    -2.7930 cl         1 QMI      -0.142500
      9 CAF         -0.0040    -1.0340    -0.3970 ca         1 QMI      -0.257500
     10 SAG         -1.5180    -2.0360    -0.4310 sy         1 QMI       1.159600
     11 OAH         -2.1880    -1.9840    -1.7310 o          1 QMI      -0.517500
     12 OAT         -1.3170    -3.3130     0.2540 o          1 QMI      -0.517500
     13 NAK         -2.5800    -1.2340     0.6070 nu         1 QMI      -0.851100
     14 CAL         -2.7120     0.1480     0.6330 cc         1 QMI       0.088000
     15 CAP         -2.1800     1.0300     1.5240 cd         1 QMI      -0.135300
     16 CAR         -1.3050     0.7960     2.7320 c3         1 QMI      -0.035800
     17 NAO         -2.6010     2.2910     1.0740 na         1 QMI       0.145800
     18 CAQ         -2.2690     3.5900     1.6780 c3         1 QMI       0.070900
     19 NAN         -3.4130     2.2230    -0.0500 nd         1 QMI      -0.522800
     20 CAM         -3.4660     0.9270    -0.2880 cc         1 QMI       0.315300
     21 CAS         -4.2940     0.3570    -1.4090 c3         1 QMI      -0.125400
     22 HAD          2.7550    -0.4740     1.5770 ha         1 QMI       0.150500
     23 HAB          1.6810     1.4140    -2.1250 ha         1 QMI       0.150500
     24 HAK         -2.3320    -1.6420     1.5000 hn         1 QMI       0.500000
     25 HAR1        -0.2490     0.9660     2.4910 hc         1 QMI       0.054033
     26 HAR2        -1.5730     1.4710     3.5540 hc         1 QMI       0.054033
     27 HAR3        -1.4070    -0.2280     3.1090 hc         1 QMI       0.054033
     28 HAQ1        -1.1830     3.6670     1.8060 h1         1 QMI       0.058700
     29 HAQ2        -2.6140     4.4050     1.0300 h1         1 QMI       0.058700
     30 HAQ3        -2.7580     3.6730     2.6550 h1         1 QMI       0.058700
     31 HAS1        -4.6660    -0.6420    -1.1570 hc         1 QMI       0.058367
     32 HAS2        -5.1630     0.9910    -1.6150 hc         1 QMI       0.058367
     33 HAS3        -3.7060     0.2830    -2.3290 hc         1 QMI       0.058367
@<TRIPOS>BOND
     1     1     2 1   
     2     2     3 ar  
     3     2     9 ar  
     4     3     4 ar  
     5     3    22 1   
     6     4     5 1   
     7     4     6 ar  
     8     6     7 ar  
     9     6    23 1   
    10     7     8 1   
    11     7     9 ar  
    12     9    10 1   
    13    10    11 2   
    14    10    12 2   
    15    10    13 1   
    16    13    14 1   
    17    13    24 1   
    18    14    15 2   
    19    14    20 1   
    20    15    16 1   
    21    15    17 1   
    22    16    25 1   
    23    16    26 1   
    24    16    27 1   
    25    17    18 1   
    26    17    19 1   
    27    18    28 1   
    28    18    29 1   
    29    18    30 1   
    30    19    20 2   
    31    20    21 1   
    32    21    31 1   
    33    21    32 1   
    34    21    33 1   
@<TRIPOS>SUBSTRUCTURE
     1 QMI         1 TEMP              0 ****  ****    0 ROOT
