@<TRIPOS>MOLECULE
QMI
   33    34     1     0     0
SMALL
abcg2


@<TRIPOS>ATOM
      1 CLJ          0.5140    -2.6200     1.8470 cl         1 QMI      -0.142500
      2 CAE          0.9670    -1.3850     0.7310 ca         1 QMI       0.203500
      3 CAD          2.2040    -0.8060     0.9520 ca         1 QMI      -0.112500
      4 CAC          2.5830     0.2730     0.1750 ca         1 QMI       0.030100
      5 BRU          4.2610     1.0600     0.4460 br         1 QMI      -0.060100
      6 CAB          1.7290     0.8010    -0.7740 ca         1 QMI      -0.112500
      7 CAA          0.4920     0.2070    -0.9880 ca         1 QMI       0.203500
      8 CLI         -0.5110     1.0190    -2.1240 cl         1 QMI      -0.142500
      9 CAF          0.1030    -0.9330    -0.2740 ca         1 QMI      -0.257500
     10 SAG         -1.4450    -1.8050    -0.5860 sy         1 QMI       1.159600
     11 OAH         -1.9330    -1.3870    -1.8790 o          1 QMI      -0.517500
     12 OAT         -1.2380    -3.2160    -0.3430 o          1 QMI      -0.517500
     13 NAK         -2.4830    -1.2440     0.5630 nu         1 QMI      -0.851100
     14 CAL         -2.7760     0.1320     0.5570 cc         1 QMI       0.088000
     15 CAP         -2.1270     1.1420     1.2490 cd         1 QMI      -0.135300
     16 CAR         -0.9940     1.0890     2.2070 c3         1 QMI      -0.035800
     17 NAO         -2.7680     2.2700     0.9050 na         1 QMI       0.145800
     18 CAQ         -2.4600     3.6190     1.3110 c3         1 QMI       0.070900
     19 NAN         -3.7660     2.0600     0.0390 nd         1 QMI      -0.522800
     20 CAM         -3.7930     0.7630    -0.1830 cc         1 QMI       0.315300
     21 CAS         -4.7790     0.1360    -1.1040 c3         1 QMI      -0.125400
     22 HAD          2.8450    -1.1940     1.7310 ha         1 QMI       0.150500
     23 HAB          2.0040     1.6740    -1.3490 ha         1 QMI       0.150500
     24 HAK         -2.4150    -1.7230     1.4550 hn         1 QMI       0.500000
     25 HAR1        -0.0930     1.5520     1.7980 hc         1 QMI       0.054033
     26 HAR2        -1.2330     1.6010     3.1400 hc         1 QMI       0.054033
     27 HAR3        -0.7560     0.0590     2.4590 hc         1 QMI       0.054033
     28 HAQ1        -1.9310     4.1510     0.5210 h1         1 QMI       0.058700
     29 HAQ2        -3.3810     4.1490     1.5430 h1         1 QMI       0.058700
     30 HAQ3        -1.8360     3.6030     2.2000 h1         1 QMI       0.058700
     31 HAS1        -5.1020    -0.8330    -0.7260 hc         1 QMI       0.058367
     32 HAS2        -5.6550     0.7690    -1.2250 hc         1 QMI       0.058367
     33 HAS3        -4.3450    -0.0320    -2.0900 hc         1 QMI       0.058367
@<TRIPOS>BOND
     1     1     2 1   
     2     2     3 ar  
     3     2     9 ar  
     4     3     4 ar  
     5     3    22 1   
     6     4     5 1   
     7     4     6 ar  
     8     6     7 ar  
     9     6    23 1   
    10     7     8 1   
    11     7     9 ar  
    12     9    10 1   
    13    10    11 2   
    14    10    12 2   
    15    10    13 1   
    16    13    14 1   
    17    13    24 1   
    18    14    15 2   
    19    14    20 1   
    20    15    16 1   
    21    15    17 1   
    22    16    25 1   
    23    16    26 1   
    24    16    27 1   
    25    17    18 1   
    26    17    19 1   
    27    18    28 1   
    28    18    29 1   
    29    18    30 1   
    30    19    20 2   
    31    20    21 1   
    32    21    31 1   
    33    21    32 1   
    34    21    33 1   
@<TRIPOS>SUBSTRUCTURE
     1 QMI         1 TEMP              0 ****  ****    0 ROOT
