@<TRIPOS>MOLECULE
QMJ
   44    47     1     0     0
SMALL
No Charge or Current Charge


@<TRIPOS>ATOM
      1 N          185.9990   185.3430   193.0640 na         1 QMJ      -0.075300
      2 C          184.5600   191.2120   195.0860 c3         1 QMJ      -0.121100
      3 O          185.6630   189.0440   195.1460 os         1 QMJ      -0.458100
      4 C1         185.4700   190.2630   195.8930 c3         1 QMJ       0.164600
      5 C10        189.6180   184.3720   193.0750 ca         1 QMJ      -0.089000
      6 C11        188.4300   185.0720   192.7530 ca         1 QMJ      -0.100600
      7 C12        188.5540   186.1530   191.6920 c          1 QMJ       0.577600
      8 C13        186.9010   187.7500   192.8450 c5         1 QMJ       0.192000
      9 C14        185.9960   188.7770   192.0900 c5         1 QMJ      -0.077400
     10 C15        187.0290   189.4980   191.1990 c5         1 QMJ      -0.100400
     11 C16        187.8020   188.2970   190.6090 c5         1 QMJ       0.097000
     12 C17        190.9760   181.6810   195.2660 c3         1 QMJ       0.146900
     13 C3         184.9710   186.8550   194.3000 cc         1 QMJ       0.216500
     14 C4         186.0410   186.6600   193.4390 cd         1 QMJ      -0.129300
     15 C5         184.8500   184.7920   193.6180 cd         1 QMJ       0.413400
     16 C6         187.2110   184.6980   193.3940 ca         1 QMJ      -0.021200
     17 C7         187.2580   183.6750   194.3830 ca         1 QMJ      -0.086000
     18 C8         188.4530   183.0130   194.6990 ca         1 QMJ      -0.166000
     19 C9         189.6410   183.3560   194.0350 ca         1 QMJ       0.138100
     20 N1         184.2210   185.6950   194.3650 nc         1 QMJ      -0.628000
     21 N2         187.7200   187.2920   191.6980 n          1 QMJ      -0.413800
     22 O1         183.6260   188.2210   195.7540 o          1 QMJ      -0.460000
     23 O2         189.3680   186.0170   190.7860 o          1 QMJ      -0.556000
     24 O3         190.8470   182.7360   194.2950 os         1 QMJ      -0.339100
     25 H2         184.4250   192.1540   195.6300 hc         1 QMJ       0.047700
     26 H1         185.0090   191.4440   194.1140 hc         1 QMJ       0.047700
     27 H3         183.5690   190.7740   194.9200 hc         1 QMJ       0.047700
     28 H4         186.4360   190.7610   196.0500 h1         1 QMJ       0.063700
     29 H5         185.0360   190.0650   196.8830 h1         1 QMJ       0.063700
     30 H9         190.5520   184.6310   192.5810 ha         1 QMJ       0.156000
     31 H          187.5290   188.2190   193.6160 h1         1 QMJ       0.068700
     32 H11        185.4670   189.4780   192.7380 hc         1 QMJ       0.067700
     33 H10        185.2370   188.2700   191.4810 hc         1 QMJ       0.067700
     34 H12        187.6870   190.1410   191.7950 hc         1 QMJ       0.057700
     35 H13        186.5670   190.1210   190.4250 hc         1 QMJ       0.057700
     36 H14        187.3160   187.9150   189.7010 h1         1 QMJ       0.066700
     37 H15        188.8380   188.5650   190.3590 h1         1 QMJ       0.066700
     38 H16        192.0150   181.3310   195.3120 h1         1 QMJ       0.046700
     39 H17        190.6930   182.0340   196.2660 h1         1 QMJ       0.046700
     40 H18        190.3410   180.8260   195.0010 h1         1 QMJ       0.046700
     41 H6         184.5860   183.7480   193.4960 h5         1 QMJ       0.067100
     42 H7         186.3720   183.3700   194.9350 ha         1 QMJ       0.129000
     43 H8         188.4340   182.2370   195.4590 ha         1 QMJ       0.128000
     44 C2         184.6640   188.0940   195.1110 c          1 QMJ       0.531600
@<TRIPOS>BOND
     1     1    14 1   
     2     1    15 1   
     3     1    16 1   
     4     2     4 1   
     5     2    25 1   
     6     2    26 1   
     7     2    27 1   
     8     3     4 1   
     9     3    44 1   
    10     4    28 1   
    11     4    29 1   
    12     5     6 ar  
    13     5    19 ar  
    14     5    30 1   
    15     6     7 1   
    16     6    16 ar  
    17     7    21 1   
    18     7    23 2   
    19     8     9 1   
    20     8    14 1   
    21     8    21 1   
    22     8    31 1   
    23     9    10 1   
    24     9    32 1   
    25     9    33 1   
    26    10    11 1   
    27    10    34 1   
    28    10    35 1   
    29    11    21 1   
    30    11    36 1   
    31    11    37 1   
    32    12    24 1   
    33    12    38 1   
    34    12    39 1   
    35    12    40 1   
    36    13    14 2   
    37    13    20 1   
    38    13    44 1   
    39    15    20 2   
    40    15    41 1   
    41    16    17 ar  
    42    17    18 ar  
    43    17    42 1   
    44    18    19 ar  
    45    18    43 1   
    46    19    24 1   
    47    22    44 2   
@<TRIPOS>SUBSTRUCTURE
     1 QMJ         1 TEMP              0 ****  ****    0 ROOT
