@<TRIPOS>MOLECULE
QMJ
   44    47     1     0     0
SMALL
abcg2


@<TRIPOS>ATOM
      1 N          186.2820   185.4640   194.1610 na         1 QMJ      -0.075300
      2 C          184.1650   191.4430   194.0800 c3         1 QMJ      -0.121100
      3 O          184.8350   189.3370   195.1490 os         1 QMJ      -0.458100
      4 C1         184.1970   190.6270   195.3560 c3         1 QMJ       0.164600
      5 C10        189.3870   184.0800   192.6510 ca         1 QMJ      -0.089000
      6 C11        188.2650   184.8860   192.8130 ca         1 QMJ      -0.100600
      7 C12        187.9830   185.8520   191.7000 c          1 QMJ       0.577600
      8 C13        187.2540   187.5940   193.3850 c5         1 QMJ       0.192000
      9 C14        187.0010   189.0880   193.1380 c5         1 QMJ      -0.077400
     10 C15        187.7620   189.3880   191.8490 c5         1 QMJ      -0.100400
     11 C16        187.4820   188.1470   191.0120 c5         1 QMJ       0.097000
     12 C17        191.2440   181.3910   194.2700 c3         1 QMJ       0.146900
     13 C3         184.8500   187.0920   194.4670 cc         1 QMJ       0.216500
     14 C4         186.1350   186.8320   194.0260 cd         1 QMJ      -0.129300
     15 C5         185.1030   184.9640   194.6420 cd         1 QMJ       0.413400
     16 C6         187.4700   184.7130   193.9520 ca         1 QMJ      -0.021200
     17 C7         187.8180   183.7560   194.8990 ca         1 QMJ      -0.086000
     18 C8         188.9390   182.9570   194.7340 ca         1 QMJ      -0.166000
     19 C9         189.7350   183.1200   193.5990 ca         1 QMJ       0.138100
     20 N1         184.2230   185.9120   194.8250 nc         1 QMJ      -0.628000
     21 N2         187.5110   187.0730   192.0150 n          1 QMJ      -0.413800
     22 O1         182.8910   188.4290   194.4640 o          1 QMJ      -0.460000
     23 O2         188.2340   185.5300   190.5340 o          1 QMJ      -0.556000
     24 O3         190.8520   182.3990   193.3350 os         1 QMJ      -0.339100
     25 H2         183.7110   192.4130   194.2900 hc         1 QMJ       0.047700
     26 H1         185.1730   191.6110   193.6980 hc         1 QMJ       0.047700
     27 H3         183.5730   190.9470   193.3100 hc         1 QMJ       0.047700
     28 H4         184.8110   191.1020   196.1180 h1         1 QMJ       0.063700
     29 H5         183.1970   190.4590   195.7510 h1         1 QMJ       0.063700
     30 H9         189.9980   184.1970   191.7680 ha         1 QMJ       0.156000
     31 H          188.1600   187.4570   193.9830 h1         1 QMJ       0.068700
     32 H11        187.3060   189.6910   193.9880 hc         1 QMJ       0.067700
     33 H10        185.9420   189.2570   192.9620 hc         1 QMJ       0.067700
     34 H12        188.8340   189.4760   192.0380 hc         1 QMJ       0.057700
     35 H13        187.4180   190.3020   191.3680 hc         1 QMJ       0.057700
     36 H14        186.5000   188.1970   190.5350 h1         1 QMJ       0.066700
     37 H15        188.2270   187.9450   190.2460 h1         1 QMJ       0.066700
     38 H16        192.1440   180.9410   193.8600 h1         1 QMJ       0.046700
     39 H17        191.4630   181.8290   195.2470 h1         1 QMJ       0.046700
     40 H18        190.4660   180.6310   194.3750 h1         1 QMJ       0.046700
     41 H6         184.9600   183.9110   194.8240 h5         1 QMJ       0.067100
     42 H7         187.2080   183.6390   195.7850 ha         1 QMJ       0.129000
     43 H8         189.1830   182.2280   195.4910 ha         1 QMJ       0.128000
     44 C2         184.0850   188.3430   194.6630 c          1 QMJ       0.531600
@<TRIPOS>BOND
     1     1    14 1   
     2     1    15 1   
     3     1    16 1   
     4     2     4 1   
     5     2    25 1   
     6     2    26 1   
     7     2    27 1   
     8     3     4 1   
     9     3    44 1   
    10     4    28 1   
    11     4    29 1   
    12     5     6 ar  
    13     5    19 ar  
    14     5    30 1   
    15     6     7 1   
    16     6    16 ar  
    17     7    21 1   
    18     7    23 2   
    19     8     9 1   
    20     8    14 1   
    21     8    21 1   
    22     8    31 1   
    23     9    10 1   
    24     9    32 1   
    25     9    33 1   
    26    10    11 1   
    27    10    34 1   
    28    10    35 1   
    29    11    21 1   
    30    11    36 1   
    31    11    37 1   
    32    12    24 1   
    33    12    38 1   
    34    12    39 1   
    35    12    40 1   
    36    13    14 2   
    37    13    20 1   
    38    13    44 1   
    39    15    20 2   
    40    15    41 1   
    41    16    17 ar  
    42    17    18 ar  
    43    17    42 1   
    44    18    19 ar  
    45    18    43 1   
    46    19    24 1   
    47    22    44 2   
@<TRIPOS>SUBSTRUCTURE
     1 QMJ         1 TEMP              0 ****  ****    0 ROOT
