@<TRIPOS>MOLECULE
QML
   44    47     1     0     0
SMALL
No Charge or Current Charge


@<TRIPOS>ATOM
      1 N1         -17.2690     4.5440    27.0930 nb         1 QML      -0.655000
      2 C4         -22.4810     5.7050    28.2960 c5         1 QML      -0.096400
      3 C5         -23.4090     6.6940    29.1010 c5         1 QML       0.171600
      4 C6         -22.8680     5.0600    30.5430 ca         1 QML       0.142100
      5 C7         -22.3860     4.6240    29.3310 ca         1 QML      -0.162300
      6 C8         -21.8640     3.3270    29.1850 ca         1 QML      -0.034000
      7 C10        -22.3280     2.9360    31.5580 ca         1 QML      -0.061000
      8 C13        -18.3410     6.8630    25.8520 ca         1 QML      -0.005000
      9 C15        -17.9430     8.8760    24.5220 ca         1 QML      -0.083000
     10 C17        -16.1010     7.3610    24.9980 ca         1 QML      -0.079000
     11 C20        -18.5790     4.8570    27.2040 ca         1 QML       0.343900
     12 C9         -21.8410     2.4810    30.3130 ca         1 QML       0.085000
     13 C11        -22.8460     4.2420    31.6800 ca         1 QML      -0.128000
     14 O2         -23.3310     6.3450    30.5260 os         1 QML      -0.334100
     15 C3         -21.1010     6.3930    28.0500 c          1 QML       0.608100
     16 O1         -20.4080     6.8900    28.9310 o          1 QML      -0.516100
     17 C2         -21.4150     6.2720    25.6020 c          1 QML       0.625100
     18 O          -22.4060     6.9910    25.5810 o          1 QML      -0.569100
     19 C1         -21.1330     5.3030    24.4410 c3         1 QML      -0.155400
     20 C          -21.7670     3.9180    24.7030 c3         1 QML      -0.085100
     21 C12        -19.1710     5.9860    26.5940 ca         1 QML      -0.099000
     22 C19        -16.4880     5.3700    26.3630 ca         1 QML       0.370900
     23 C18        -16.9730     6.5330    25.7330 ca         1 QML      -0.095000
     24 C16        -16.5890     8.5290    24.3900 ca         1 QML      -0.108000
     25 C14        -18.8170     8.0520    25.2530 ca         1 QML      -0.104000
     26 H1         -22.9620     5.3410    27.3840 hc         1 QML       0.098700
     27 H2         -23.1470     7.7510    28.9590 h1         1 QML       0.074200
     28 H3         -24.4540     6.5680    28.7850 h1         1 QML       0.074200
     29 H4         -21.4830     2.9800    28.2280 ha         1 QML       0.131000
     30 H5         -22.3010     2.2780    32.4230 ha         1 QML       0.132000
     31 H6         -18.3160     9.7890    24.0620 ha         1 QML       0.119000
     32 H7         -15.0480     7.1040    24.9020 ha         1 QML       0.120000
     33 H8         -19.1840     4.1640    27.7870 h4         1 QML       0.027100
     34 H9         -23.2230     4.6090    32.6310 ha         1 QML       0.137000
     35 H10        -20.0560     5.1370    24.3290 hc         1 QML       0.075200
     36 H11        -21.5500     5.7150    23.5150 hc         1 QML       0.075200
     37 H12        -21.5670     3.2410    23.8630 hc         1 QML       0.046033
     38 H13        -21.3540     3.4650    25.6120 hc         1 QML       0.046033
     39 H14        -22.8540     4.0040    24.8220 hc         1 QML       0.046033
     40 H15        -15.4370     5.0940    26.2880 h4         1 QML       0.024100
     41 H16        -15.9150     9.1700    23.8250 ha         1 QML       0.120000
     42 H17        -19.8520     8.3620    25.3550 ha         1 QML       0.123000
     43 N          -20.5960     6.1940    26.7460 n          1 QML      -0.233000
     44 Cl         -21.1920     0.8530    30.1680 cl         1 QML      -0.213000
@<TRIPOS>BOND
     1     1    11 ar  
     2     1    22 ar  
     3     2     3 1   
     4     2     5 1   
     5     2    15 1   
     6     2    26 1   
     7     3    14 1   
     8     3    27 1   
     9     3    28 1   
    10     4     5 ar  
    11     4    13 ar  
    12     4    14 1   
    13     5     6 ar  
    14     6    12 ar  
    15     6    29 1   
    16     7    12 ar  
    17     7    13 ar  
    18     7    30 1   
    19     8    21 ar  
    20     8    23 ar  
    21     8    25 ar  
    22     9    24 ar  
    23     9    25 ar  
    24     9    31 1   
    25    10    23 ar  
    26    10    24 ar  
    27    10    32 1   
    28    11    21 ar  
    29    11    33 1   
    30    12    44 1   
    31    13    34 1   
    32    15    16 2   
    33    15    43 1   
    34    17    18 2   
    35    17    19 1   
    36    17    43 1   
    37    19    20 1   
    38    19    35 1   
    39    19    36 1   
    40    20    37 1   
    41    20    38 1   
    42    20    39 1   
    43    21    43 1   
    44    22    23 ar  
    45    22    40 1   
    46    24    41 1   
    47    25    42 1   
@<TRIPOS>SUBSTRUCTURE
     1 QML         1 TEMP              0 ****  ****    0 ROOT
