@<TRIPOS>MOLECULE
QML
   44    47     1     0     0
SMALL
abcg2


@<TRIPOS>ATOM
      1 N1         -17.2630     4.1050    25.7280 nb         1 QML      -0.655000
      2 C4         -22.2890     5.2270    28.3280 c5         1 QML      -0.096400
      3 C5         -23.0380     6.5580    28.6200 c5         1 QML       0.171600
      4 C6         -22.7800     5.4960    30.6170 ca         1 QML       0.142100
      5 C7         -22.3190     4.5720    29.6870 ca         1 QML      -0.162300
      6 C8         -21.9590     3.2970    30.0800 ca         1 QML      -0.034000
      7 C10        -22.5310     3.9010    32.3650 ca         1 QML      -0.061000
      8 C13        -18.4730     6.6560    25.8780 ca         1 QML      -0.005000
      9 C15        -18.2400     9.0470    25.6740 ca         1 QML      -0.083000
     10 C17        -16.3210     7.6470    25.2490 ca         1 QML      -0.079000
     11 C20        -18.5710     4.2510    26.0550 ca         1 QML       0.343900
     12 C9         -22.0750     2.9780    31.4300 ca         1 QML       0.085000
     13 C11        -22.8940     5.1850    31.9630 ca         1 QML      -0.128000
     14 O2         -23.0840     6.7030    30.0680 os         1 QML      -0.334100
     15 C3         -20.8590     5.4730    27.8700 c          1 QML       0.608100
     16 O1         -19.9440     5.5790    28.6590 o          1 QML      -0.516100
     17 C2         -21.5630     5.7450    25.4930 c          1 QML       0.625100
     18 O          -22.6840     6.1140    25.7790 o          1 QML      -0.569100
     19 C1         -21.1590     5.4550    24.0690 c3         1 QML      -0.155400
     20 C          -21.3490     3.9650    23.7480 c3         1 QML      -0.085100
     21 C12        -19.1970     5.4660    26.1290 ca         1 QML      -0.099000
     22 C19        -16.5700     5.1920    25.4730 ca         1 QML       0.370900
     23 C18        -17.1020     6.5030    25.5270 ca         1 QML      -0.095000
     24 C16        -16.8810     8.8970    25.3200 ca         1 QML      -0.108000
     25 C14        -19.0240     7.9550    25.9500 ca         1 QML      -0.104000
     26 H1         -22.8240     4.6490    27.5820 hc         1 QML       0.098700
     27 H2         -22.5440     7.4370    28.2160 h1         1 QML       0.074200
     28 H3         -24.0600     6.5070    28.2500 h1         1 QML       0.074200
     29 H4         -21.5930     2.5690    29.3680 ha         1 QML       0.131000
     30 H5         -22.6080     3.6190    33.4060 ha         1 QML       0.132000
     31 H6         -18.6660    10.0400    25.7320 ha         1 QML       0.119000
     32 H7         -15.2790     7.5180    24.9820 ha         1 QML       0.120000
     33 H8         -19.1270     3.3450    26.2630 h4         1 QML       0.027100
     34 H9         -23.2540     5.9120    32.6790 ha         1 QML       0.137000
     35 H10        -20.1280     5.7480    23.8790 hc         1 QML       0.075200
     36 H11        -21.8070     6.0590    23.4370 hc         1 QML       0.075200
     37 H12        -21.1080     3.7840    22.7010 hc         1 QML       0.046033
     38 H13        -20.7010     3.3390    24.3610 hc         1 QML       0.046033
     39 H14        -22.3830     3.6620    23.9210 hc         1 QML       0.046033
     40 H15        -15.5240     5.0630    25.2080 h4         1 QML       0.024100
     41 H16        -16.2860     9.7750    25.1060 ha         1 QML       0.120000
     42 H17        -20.0620     8.0850    26.2260 ha         1 QML       0.123000
     43 N          -20.5890     5.5270    26.4890 n          1 QML      -0.233000
     44 CL         -21.6320     1.3660    31.9660 cl         1 QML      -0.213000
@<TRIPOS>BOND
     1     1    11 ar  
     2     1    22 ar  
     3     2     3 1   
     4     2     5 1   
     5     2    15 1   
     6     2    26 1   
     7     3    14 1   
     8     3    27 1   
     9     3    28 1   
    10     4     5 ar  
    11     4    13 ar  
    12     4    14 1   
    13     5     6 ar  
    14     6    12 ar  
    15     6    29 1   
    16     7    12 ar  
    17     7    13 ar  
    18     7    30 1   
    19     8    21 ar  
    20     8    23 ar  
    21     8    25 ar  
    22     9    24 ar  
    23     9    25 ar  
    24     9    31 1   
    25    10    23 ar  
    26    10    24 ar  
    27    10    32 1   
    28    11    21 ar  
    29    11    33 1   
    30    12    44 1   
    31    13    34 1   
    32    15    16 2   
    33    15    43 1   
    34    17    18 2   
    35    17    19 1   
    36    17    43 1   
    37    19    20 1   
    38    19    35 1   
    39    19    36 1   
    40    20    37 1   
    41    20    38 1   
    42    20    39 1   
    43    21    43 1   
    44    22    23 ar  
    45    22    40 1   
    46    24    41 1   
    47    25    42 1   
@<TRIPOS>SUBSTRUCTURE
     1 QML         1 TEMP              0 ****  ****    0 ROOT
