@<TRIPOS>MOLECULE
QMM
   25    24     1     0     0
SMALL
No Charge or Current Charge


@<TRIPOS>ATOM
      1 C           -4.9100    -1.1940    34.4100 c          1 QMM       0.928600
      2 CD          -6.5210    -2.0010    39.3060 c          1 QMM       0.667100
      3 CG          -6.6510    -2.3930    37.8170 c3         1 QMM      -0.150400
      4 N           -5.6900    -3.6150    35.1510 n8         1 QMM      -0.901800
      5 OXT         -3.8080    -0.8060    34.7910 o          1 QMM      -0.833800
      6 OE1         -5.6220    -1.2610    39.6890 o          1 QMM      -0.600100
      7 NE2         -7.4630    -2.5130    40.2290 n          1 QMM      -0.491800
      8 CH1         -8.5620    -3.4160    39.8110 c3         1 QMM       0.091300
      9 CH2         -7.3690    -2.1560    41.6640 c3         1 QMM       0.091300
     10 CA          -5.7970    -2.1230    35.3630 c3         1 QMM       0.016500
     11 CB          -5.5910    -1.7750    36.8650 c3         1 QMM      -0.039400
     12 O           -5.3640    -0.8890    33.3100 o          1 QMM      -0.833800
     13 HG1         -6.6610    -3.4870    37.7610 hc         1 QMM       0.047700
     14 HG2         -7.6690    -2.1510    37.4910 hc         1 QMM       0.047700
     15 H           -6.3790    -4.0900    35.7430 hn         1 QMM       0.327300
     16 H2          -5.9770    -3.8400    34.1920 hn         1 QMM       0.327300
     17 HH1         -9.1750    -3.7080    40.6730 h1         1 QMM       0.031033
     18 HH1A        -9.2060    -2.9070    39.0830 h1         1 QMM       0.031033
     19 HH1B        -8.1460    -4.3250    39.3580 h1         1 QMM       0.031033
     20 HH2         -8.1810    -2.6180    42.2380 h1         1 QMM       0.031033
     21 HH2A        -6.4090    -2.5030    42.0680 h1         1 QMM       0.031033
     22 HH2B        -7.4330    -1.0660    41.7780 h1         1 QMM       0.031033
     23 HA          -6.8400    -1.8720    35.1300 h1         1 QMM      -0.005300
     24 HB2         -5.6250    -0.6830    36.9740 hc         1 QMM       0.062200
     25 HB3         -4.5880    -2.0900    37.1800 hc         1 QMM       0.062200
@<TRIPOS>BOND
     1     1     5 1   
     2     1    10 1   
     3     1    12 1   
     4     2     3 1   
     5     2     6 2   
     6     2     7 1   
     7     3    11 1   
     8     3    13 1   
     9     3    14 1   
    10     4    10 1   
    11     4    15 1   
    12     4    16 1   
    13     7     8 1   
    14     7     9 1   
    15     8    17 1   
    16     8    18 1   
    17     8    19 1   
    18     9    20 1   
    19     9    21 1   
    20     9    22 1   
    21    10    11 1   
    22    10    23 1   
    23    11    24 1   
    24    11    25 1   
@<TRIPOS>SUBSTRUCTURE
     1 QMM         1 TEMP              0 ****  ****    0 ROOT
