@<TRIPOS>MOLECULE
QMM
   25    24     1     0     0
SMALL
bcc


@<TRIPOS>ATOM
      1 C           -4.9750    -1.3170    34.4870 c          1 QMM       0.928600
      2 CD          -6.5000    -2.0000    39.2960 c          1 QMM       0.667100
      3 CG          -6.7140    -2.3290    37.8310 c3         1 QMM      -0.150400
      4 N           -5.9310    -3.4890    35.2290 n8         1 QMM      -0.901800
      5 OXT         -4.7860    -0.1060    34.7160 o          1 QMM      -0.833800
      6 OE1         -5.5460    -1.3280    39.6660 o          1 QMM      -0.600100
      7 NE2         -7.4190    -2.4730    40.1740 n          1 QMM      -0.491800
      8 CH1         -8.4530    -3.4230    39.8210 c3         1 QMM       0.091300
      9 CH2         -7.2180    -2.2810    41.5950 c3         1 QMM       0.091300
     10 CA          -5.9600    -2.0480    35.4400 c3         1 QMM       0.016500
     11 CB          -5.6760    -1.7140    36.9050 c3         1 QMM      -0.039400
     12 O           -4.4830    -1.9840    33.5540 o          1 QMM      -0.833800
     13 HG1         -6.7190    -3.4170    37.7120 hc         1 QMM       0.047700
     14 HG2         -7.7120    -1.9950    37.5270 hc         1 QMM       0.047700
     15 H           -6.8570    -3.8800    35.3350 hn         1 QMM       0.327300
     16 H2          -5.6480    -3.6520    34.2710 hn         1 QMM       0.327300
     17 HH1         -9.3270    -3.2530    40.4480 h1         1 QMM       0.031033
     18 HH1A        -8.7700    -3.3110    38.7880 h1         1 QMM       0.031033
     19 HH1B        -8.1270    -4.4560    39.9700 h1         1 QMM       0.031033
     20 HH2         -8.1850    -2.1850    42.0870 h1         1 QMM       0.031033
     21 HH2A        -6.6900    -3.1250    42.0480 h1         1 QMM       0.031033
     22 HH2B        -6.6460    -1.3780    41.7850 h1         1 QMM       0.031033
     23 HA          -6.9530    -1.6270    35.2020 h1         1 QMM      -0.005300
     24 HB2         -5.6640    -0.6310    37.0270 hc         1 QMM       0.062200
     25 HB3         -4.6790    -2.0800    37.1640 hc         1 QMM       0.062200
@<TRIPOS>BOND
     1     1     5 1   
     2     1    10 1   
     3     1    12 1   
     4     2     3 1   
     5     2     6 2   
     6     2     7 1   
     7     3    11 1   
     8     3    13 1   
     9     3    14 1   
    10     4    10 1   
    11     4    15 1   
    12     4    16 1   
    13     7     8 1   
    14     7     9 1   
    15     8    17 1   
    16     8    18 1   
    17     8    19 1   
    18     9    20 1   
    19     9    21 1   
    20     9    22 1   
    21    10    11 1   
    22    10    23 1   
    23    11    24 1   
    24    11    25 1   
@<TRIPOS>SUBSTRUCTURE
     1 QMM         1 TEMP              0 ****  ****    0 ROOT
