@<TRIPOS>MOLECULE
QMN
   59    64     1     0     0
SMALL
bcc


@<TRIPOS>ATOM
      1 C1           1.0180     1.3920     0.6720 c6         1 QMN       0.148100
      2 N2           3.7650     0.7780    -0.1370 nu         1 QMN      -0.599400
      3 C3           2.9150    -0.2410     0.2160 cc         1 QMN       0.165600
      4 C4           1.6050     0.0130     0.6440 cc         1 QMN      -0.203300
      5 C5           1.0520    -1.2150     0.9450 cd         1 QMN      -0.077300
      6 N6           1.9700    -2.1720     0.7190 na         1 QMN      -0.119100
      7 C7           3.1390    -1.6090     0.2640 cd         1 QMN      -0.252900
      8 C8           2.1140     2.4080     0.4050 ce         1 QMN      -0.322400
      9 C9           3.3770     2.0670     0.0040 c2         1 QMN       0.202800
     10 C10          4.4240     3.0870    -0.3270 c6         1 QMN      -0.058200
     11 C11          4.1910     4.3850     0.4230 c6         1 QMN      -0.063400
     12 C12          2.7640     4.8590     0.2070 c6         1 QMN      -0.180400
     13 C13          1.7440     3.8000     0.5550 c          1 QMN       0.592300
     14 O14          0.6210     4.1190     0.9280 o          1 QMN      -0.549100
     15 C15          4.3460    -2.3220    -0.0700 c          1 QMN       0.700700
     16 O16          5.3510    -1.7730    -0.4760 o          1 QMN      -0.569000
     17 O17          4.2350    -3.6310     0.1140 os         1 QMN      -0.436900
     18 C18          5.3720    -4.4570    -0.1820 c3         1 QMN       0.148400
     19 C19          5.0050    -5.8810     0.1550 c3         1 QMN      -0.099100
     20 C20         -0.1060     1.4930    -0.3420 ca         1 QMN      -0.053300
     21 C21         -1.4290     1.4980     0.0790 ca         1 QMN      -0.105000
     22 C22         -2.4470     1.5310    -0.8580 ca         1 QMN       0.108100
     23 C23         -2.1890     1.5650    -2.2150 ca         1 QMN      -0.119000
     24 C24         -0.8640     1.5650    -2.6330 ca         1 QMN      -0.125000
     25 C25          0.1670     1.5260    -1.7070 ca         1 QMN      -0.109000
     26 C26         -7.2980    -2.7980     0.8000 ca         1 QMN      -0.123000
     27 C27         -6.2050    -3.5680     0.3850 ca         1 QMN      -0.147000
     28 C28         -5.0230    -2.9770    -0.0360 ca         1 QMN      -0.082000
     29 C29         -7.2440    -1.4110     0.8060 ca         1 QMN      -0.126000
     30 C30         -6.0590    -0.8320     0.3830 ca         1 QMN      -0.080200
     31 C31         -4.9500    -1.5880    -0.0360 ca         1 QMN       0.093400
     32 N32         -3.9130    -0.7540    -0.4000 nc         1 QMN      -0.641100
     33 C33         -4.3830     0.4380    -0.2070 cd         1 QMN       0.634100
     34 N34         -5.6530     0.4770     0.2580 na         1 QMN      -0.278300
     35 O35         -3.7610     1.5910    -0.4170 os         1 QMN      -0.329700
     36 H1           0.5860     1.5890     1.6580 hc         1 QMN       0.072700
     37 HN2          4.7150     0.5610    -0.3960 hn         1 QMN       0.469800
     38 H5           0.0630    -1.4640     1.2930 h4         1 QMN       0.180000
     39 HN6          1.8160    -3.1580     0.8500 hn         1 QMN       0.316700
     40 H10          5.4140     2.6830    -0.1020 hc         1 QMN       0.060200
     41 H10A         4.3990     3.2680    -1.4070 hc         1 QMN       0.060200
     42 H11          4.3720     4.2290     1.4890 hc         1 QMN       0.051700
     43 H11A         4.8990     5.1420     0.0850 hc         1 QMN       0.051700
     44 H12          2.5470     5.7610     0.7820 hc         1 QMN       0.068700
     45 H12A         2.6200     5.1170    -0.8490 hc         1 QMN       0.068700
     46 H18          5.6300    -4.3600    -1.2390 h1         1 QMN       0.050700
     47 H18A         6.2310    -4.1260     0.4050 h1         1 QMN       0.050700
     48 H19          4.1570    -6.2280    -0.4360 hc         1 QMN       0.047367
     49 H19A         5.8520    -6.5290    -0.0670 hc         1 QMN       0.047367
     50 H19B         4.7650    -5.9950     1.2120 hc         1 QMN       0.047367
     51 H21         -1.6650     1.4830     1.1370 ha         1 QMN       0.146000
     52 H23         -3.0000     1.5980    -2.9300 ha         1 QMN       0.143000
     53 H24         -0.6400     1.5950    -3.6920 ha         1 QMN       0.132000
     54 H25          1.1950     1.5250    -2.0490 ha         1 QMN       0.135000
     55 H27         -6.2860    -4.6470     0.3950 ha         1 QMN       0.130000
     56 H28         -4.1800    -3.5760    -0.3560 ha         1 QMN       0.143000
     57 H29         -8.0890    -0.8170     1.1290 ha         1 QMN       0.135000
     58 HN34        -6.1870     1.3070     0.4680 hn         1 QMN       0.317700
     59 H26         -8.2030    -3.2930     1.1250 ha         1 QMN       0.130000
@<TRIPOS>BOND
     1     1     4 1   
     2     1     8 1   
     3     1    20 1   
     4     1    36 1   
     5     2     3 1   
     6     2     9 1   
     7     2    37 1   
     8     3     4 1   
     9     3     7 2   
    10     4     5 2   
    11     5     6 1   
    12     5    38 1   
    13     6     7 1   
    14     6    39 1   
    15     7    15 1   
    16     8     9 2   
    17     8    13 1   
    18     9    10 1   
    19    10    11 1   
    20    10    40 1   
    21    10    41 1   
    22    11    12 1   
    23    11    42 1   
    24    11    43 1   
    25    12    13 1   
    26    12    44 1   
    27    12    45 1   
    28    13    14 2   
    29    15    16 2   
    30    15    17 1   
    31    17    18 1   
    32    18    19 1   
    33    18    46 1   
    34    18    47 1   
    35    19    48 1   
    36    19    49 1   
    37    19    50 1   
    38    20    21 ar  
    39    20    25 ar  
    40    21    22 ar  
    41    21    51 1   
    42    22    23 ar  
    43    22    35 1   
    44    23    24 ar  
    45    23    52 1   
    46    24    25 ar  
    47    24    53 1   
    48    25    54 1   
    49    26    27 ar  
    50    26    29 ar  
    51    26    59 1   
    52    27    28 ar  
    53    27    55 1   
    54    28    31 ar  
    55    28    56 1   
    56    29    30 ar  
    57    29    57 1   
    58    30    31 ar  
    59    30    34 1   
    60    31    32 1   
    61    32    33 2   
    62    33    34 1   
    63    33    35 1   
    64    34    58 1   
@<TRIPOS>SUBSTRUCTURE
     1 QMN         1 TEMP              0 ****  ****    0 ROOT
