@<TRIPOS>MOLECULE
QMN
   59    64     1     0     0
SMALL
No Charge or Current Charge


@<TRIPOS>ATOM
      1 C1           0.8800     0.9010     0.5840 c6         1 QMN       0.148100
      2 N2           3.6890     0.6250     0.1370 nu         1 QMN      -0.793000
      3 C3           2.9550    -0.5200     0.1970 cc         1 QMN       0.304000
      4 C4           1.5820    -0.4290     0.4290 cc         1 QMN      -0.203300
      5 C5           1.0470    -1.6890     0.4680 cd         1 QMN      -0.110000
      6 N6           2.1270    -2.5660     0.2680 na         1 QMN      -0.068000
      7 C7           3.3150    -1.8270     0.1070 cd         1 QMN      -0.303600
      8 C8           1.9070     2.0540     0.6610 ce         1 QMN      -0.322400
      9 C9           3.2320     1.9000     0.4190 c2         1 QMN       0.202800
     10 C10          4.2230     3.0640     0.3430 c6         1 QMN      -0.058200
     11 C11          3.6110     4.4570     0.6710 c6         1 QMN      -0.063400
     12 C12          2.1180     4.5390     0.2700 c6         1 QMN      -0.180400
     13 C13          1.3760     3.4050     0.9710 c          1 QMN       0.592300
     14 O14          0.3620     3.6000     1.6280 o          1 QMN      -0.549100
     15 C15          4.6820    -2.3280    -0.1160 c          1 QMN       0.651700
     16 O16          5.6560    -1.5960    -0.2440 o          1 QMN      -0.520000
     17 O17          4.7500    -3.6950    -0.1640 os         1 QMN      -0.460100
     18 C18          6.0360    -4.3000    -0.3770 c3         1 QMN       0.171600
     19 C19          5.8320    -5.8240    -0.3890 c3         1 QMN      -0.099100
     20 C20         -0.1020     1.1270    -0.5710 ca         1 QMN      -0.053300
     21 C21         -1.4880     1.2070    -0.3280 ca         1 QMN      -0.087000
     22 C22         -2.3840     1.4060    -1.3950 ca         1 QMN       0.108100
     23 C23         -1.8980     1.5540    -2.7040 ca         1 QMN      -0.101000
     24 C24         -0.5170     1.4760    -2.9530 ca         1 QMN      -0.107000
     25 C25          0.3770     1.2590    -1.8910 ca         1 QMN      -0.091000
     26 C26         -7.6330    -1.9890     1.3810 ca         1 QMN      -0.105000
     27 C27         -6.5320    -2.8720     1.4770 ca         1 QMN      -0.129000
     28 C28         -5.2660    -2.4920     0.9790 ca         1 QMN      -0.064000
     29 C29         -7.4750    -0.7200     0.7870 ca         1 QMN      -0.108000
     30 C30         -6.2050    -0.3780     0.3050 ca         1 QMN      -0.080200
     31 C31         -5.1270    -1.2250     0.3910 ca         1 QMN       0.093400
     32 N32         -3.9830    -0.6640    -0.1540 nc         1 QMN      -0.641100
     33 C33         -4.4590     0.5310    -0.5450 cd         1 QMN       0.634100
     34 N34         -5.8040     0.7790    -0.3050 na         1 QMN      -0.328600
     35 O35         -3.7370     1.5090    -1.1690 os         1 QMN      -0.329700
     36 H1           0.3220     0.8830     1.5320 hc         1 QMN       0.072700
     37 HN2          4.6890     0.4860    -0.0180 hn         1 QMN       0.525000
     38 H5           0.0260    -2.0250     0.6170 h4         1 QMN       0.162000
     39 HN6          2.0600    -3.5810     0.2460 hn         1 QMN       0.367000
     40 H10          5.0760     2.8720     1.0070 hc         1 QMN       0.060200
     41 H10A         4.6320     3.0940    -0.6760 hc         1 QMN       0.060200
     42 H11          3.6980     4.6430     1.7510 hc         1 QMN       0.051700
     43 H11A         4.1880     5.2490     0.1740 hc         1 QMN       0.051700
     44 H12          1.6600     5.5110     0.4960 hc         1 QMN       0.068700
     45 H12A         2.0780     4.3440    -0.8100 hc         1 QMN       0.068700
     46 H18          6.4660    -3.9810    -1.3360 h1         1 QMN       0.050700
     47 H18A         6.7350    -4.0300     0.4260 h1         1 QMN       0.050700
     48 H19          5.1480    -6.1160    -1.1940 hc         1 QMN       0.047367
     49 H19A         6.7900    -6.3330    -0.5490 hc         1 QMN       0.047367
     50 H19B         5.4170    -6.1650     0.5670 hc         1 QMN       0.047367
     51 H21         -1.8690     1.1170     0.6860 ha         1 QMN       0.128000
     52 H23         -2.5910     1.7250    -3.5240 ha         1 QMN       0.125000
     53 H24         -0.1400     1.5830    -3.9680 ha         1 QMN       0.114000
     54 H25          1.4450     1.1970    -2.0900 ha         1 QMN       0.117000
     55 H27         -6.6600    -3.8490     1.9360 ha         1 QMN       0.112000
     56 H28         -4.4140    -3.1640     1.0490 ha         1 QMN       0.125000
     57 H29         -8.3130    -0.0310     0.7060 ha         1 QMN       0.117000
     58 HN34        -6.3240     1.6130    -0.5360 hn         1 QMN       0.368000
     59 H26         -8.6040    -2.2900     1.7670 ha         1 QMN       0.112000
@<TRIPOS>BOND
     1     1     4 1   
     2     1     8 1   
     3     1    20 1   
     4     1    36 1   
     5     2     3 1   
     6     2     9 1   
     7     2    37 1   
     8     3     4 1   
     9     3     7 2   
    10     4     5 2   
    11     5     6 1   
    12     5    38 1   
    13     6     7 1   
    14     6    39 1   
    15     7    15 1   
    16     8     9 2   
    17     8    13 1   
    18     9    10 1   
    19    10    11 1   
    20    10    40 1   
    21    10    41 1   
    22    11    12 1   
    23    11    42 1   
    24    11    43 1   
    25    12    13 1   
    26    12    44 1   
    27    12    45 1   
    28    13    14 2   
    29    15    16 2   
    30    15    17 1   
    31    17    18 1   
    32    18    19 1   
    33    18    46 1   
    34    18    47 1   
    35    19    48 1   
    36    19    49 1   
    37    19    50 1   
    38    20    21 ar  
    39    20    25 ar  
    40    21    22 ar  
    41    21    51 1   
    42    22    23 ar  
    43    22    35 1   
    44    23    24 ar  
    45    23    52 1   
    46    24    25 ar  
    47    24    53 1   
    48    25    54 1   
    49    26    27 ar  
    50    26    29 ar  
    51    26    59 1   
    52    27    28 ar  
    53    27    55 1   
    54    28    31 ar  
    55    28    56 1   
    56    29    30 ar  
    57    29    57 1   
    58    30    31 ar  
    59    30    34 1   
    60    31    32 1   
    61    32    33 2   
    62    33    34 1   
    63    33    35 1   
    64    34    58 1   
@<TRIPOS>SUBSTRUCTURE
     1 QMN         1 TEMP              0 ****  ****    0 ROOT
