@<TRIPOS>MOLECULE
QMO
   51    53     1     0     0
SMALL
abcg2


@<TRIPOS>ATOM
      1 C18        -44.0700   -27.9360     1.0730 ca         1 QMO      -0.091300
      2 C17        -43.4040   -29.0100     1.8860 c5         1 QMO      -0.014100
      3 C14        -44.3170   -31.2120     2.8960 c          1 QMO       0.718000
      4 C13        -44.3610   -30.2150     1.7230 c5         1 QMO      -0.204700
      5 C12        -45.7570   -29.5840     1.4350 c5         1 QMO       0.166000
      6 C19        -43.5380   -26.7350     0.6140 ca         1 QMO       0.116100
      7 C01        -53.2390   -28.4810    11.4690 c3         1 QMO      -0.108600
      8 C02        -53.1370   -29.2840    10.1780 c3         1 QMO       0.120700
      9 C04        -51.6600   -29.1090     8.2040 c          1 QMO       0.657100
     10 C06        -49.7860   -29.0310     6.5400 ca         1 QMO      -0.004000
     11 C07        -48.4070   -28.7920     6.4310 ca         1 QMO      -0.173500
     12 C08        -47.7700   -28.8600     5.2060 ca         1 QMO      -0.037500
     13 C09        -48.4840   -29.1650     4.0420 ca         1 QMO      -0.154600
     14 C21        -44.3400   -25.8730    -0.1360 ca         1 QMO      -0.208000
     15 C22        -45.6630   -26.2120    -0.4140 ca         1 QMO      -0.102000
     16 C23        -46.2080   -27.4070     0.0500 ca         1 QMO      -0.112000
     17 C24        -45.3950   -28.2570     0.7920 ca         1 QMO      -0.063300
     18 C26        -49.8560   -29.3870     4.1560 ca         1 QMO      -0.037500
     19 C27        -50.5090   -29.3300     5.3780 ca         1 QMO      -0.173500
     20 C29        -53.3340   -30.7820    10.4150 c3         1 QMO      -0.108600
     21 N03        -51.8460   -29.0110     9.5470 ns         1 QMO      -0.524900
     22 N11        -46.5130   -29.3950     2.6700 ns         1 QMO      -0.481900
     23 O15        -44.5590   -30.7430     4.0470 o          1 QMO      -0.726000
     24 O16        -44.0450   -32.4060     2.6350 o          1 QMO      -0.726000
     25 O20        -42.2350   -26.4510     0.9170 oh         1 QMO      -0.540100
     26 O28        -52.5830   -29.2850     7.4090 o          1 QMO      -0.630100
     27 H172       -43.3310   -28.7150     2.9370 hc         1 QMO       0.060700
     28 H171       -42.3960   -29.2430     1.5420 hc         1 QMO       0.060700
     29 H131       -44.0800   -30.7490     0.8160 hc         1 QMO       0.051700
     30 H121       -46.3470   -30.2140     0.7680 h1         1 QMO       0.067700
     31 H011       -54.2020   -28.6600    11.9490 hc         1 QMO       0.040367
     32 H012       -52.4530   -28.7770    12.1690 hc         1 QMO       0.040367
     33 H013       -53.1410   -27.4120    11.2730 hc         1 QMO       0.040367
     34 H021       -53.8970   -28.9370     9.4780 h1         1 QMO       0.081700
     35 H071       -47.8390   -28.5460     7.3200 ha         1 QMO       0.122500
     36 H081       -46.7090   -28.6520     5.1670 ha         1 QMO       0.135500
     37 H211       -43.9230   -24.9420    -0.5030 ha         1 QMO       0.093000
     38 H221       -46.2680   -25.5330    -1.0010 ha         1 QMO       0.097000
     39 H231       -47.2360   -27.6680    -0.1570 ha         1 QMO       0.133000
     40 H261       -50.4210   -29.6170     3.2630 ha         1 QMO       0.135500
     41 H271       -51.5680   -29.5150     5.4400 ha         1 QMO       0.122500
     42 H293       -53.2480   -31.3340     9.4780 hc         1 QMO       0.040367
     43 H291       -52.5810   -31.1600    11.1110 hc         1 QMO       0.040367
     44 H292       -54.3220   -30.9750    10.8390 hc         1 QMO       0.040367
     45 H031       -51.0380   -29.0310    10.1510 hn         1 QMO       0.299500
     46 H051       -49.6760   -28.7610     8.5510 hn         1 QMO       0.140000
     47 H111       -46.0000   -29.6510     3.5130 hn         1 QMO       0.377500
     48 H201       -41.9870   -25.5990     0.5330 ho         1 QMO       0.444000
     49 C10        -47.8500   -29.2520     2.6920 c          1 QMO       0.606700
     50 O25        -48.5310   -29.1970     1.6580 o          1 QMO      -0.666100
     51 N05        -50.3390   -28.9600     7.8170 ns         1 QMO      -0.163000
@<TRIPOS>BOND
     1     1     2 1   
     2     1     6 ar  
     3     1    17 ar  
     4     2     4 1   
     5     2    27 1   
     6     2    28 1   
     7     3     4 1   
     8     3    23 1   
     9     3    24 1   
    10     4     5 1   
    11     4    29 1   
    12     5    17 1   
    13     5    22 1   
    14     5    30 1   
    15     6    14 ar  
    16     6    25 1   
    17     7     8 1   
    18     7    31 1   
    19     7    32 1   
    20     7    33 1   
    21     8    20 1   
    22     8    21 1   
    23     8    34 1   
    24     9    21 1   
    25     9    26 2   
    26     9    51 1   
    27    10    11 ar  
    28    10    19 ar  
    29    10    51 1   
    30    11    12 ar  
    31    11    35 1   
    32    12    13 ar  
    33    12    36 1   
    34    13    18 ar  
    35    13    49 1   
    36    14    15 ar  
    37    14    37 1   
    38    15    16 ar  
    39    15    38 1   
    40    16    17 ar  
    41    16    39 1   
    42    18    19 ar  
    43    18    40 1   
    44    19    41 1   
    45    20    42 1   
    46    20    43 1   
    47    20    44 1   
    48    21    45 1   
    49    22    47 1   
    50    22    49 1   
    51    25    48 1   
    52    46    51 1   
    53    49    50 2   
@<TRIPOS>SUBSTRUCTURE
     1 QMO         1 TEMP              0 ****  ****    0 ROOT
