@<TRIPOS>MOLECULE
QMO
   51    53     1     0     0
SMALL
No Charge or Current Charge


@<TRIPOS>ATOM
      1 C18        -44.0910   -27.8190     1.1010 ca         1 QMO      -0.091300
      2 C17        -43.3790   -28.7880     2.0120 c5         1 QMO      -0.014100
      3 C14        -44.1390   -31.0900     2.9320 c          1 QMO       0.718000
      4 C13        -44.2260   -30.0950     1.7410 c5         1 QMO      -0.204700
      5 C12        -45.6920   -29.5990     1.3750 c5         1 QMO       0.166000
      6 C19        -43.6060   -26.5870     0.6260 ca         1 QMO       0.116100
      7 C01        -52.9490   -28.4130    11.6390 c3         1 QMO      -0.108600
      8 C02        -53.1360   -29.1220    10.2850 c3         1 QMO       0.120700
      9 C04        -51.7480   -29.1840     8.1870 c          1 QMO       0.657100
     10 C06        -49.8200   -29.2780     6.4920 ca         1 QMO      -0.004000
     11 C07        -48.4170   -29.3200     6.4330 ca         1 QMO      -0.173500
     12 C08        -47.7430   -29.3610     5.2000 ca         1 QMO      -0.037500
     13 C09        -48.4690   -29.3630     3.9850 ca         1 QMO      -0.154600
     14 C21        -44.4190   -25.8100    -0.2180 ca         1 QMO      -0.208000
     15 C22        -45.7040   -26.2660    -0.5780 ca         1 QMO      -0.102000
     16 C23        -46.1780   -27.4990    -0.0910 ca         1 QMO      -0.112000
     17 C24        -45.3550   -28.2640     0.7520 ca         1 QMO      -0.063300
     18 C26        -49.8790   -29.3190     4.0490 ca         1 QMO      -0.037500
     19 C27        -50.5470   -29.2780     5.2850 ca         1 QMO      -0.173500
     20 C29        -53.7160   -30.5410    10.4460 c3         1 QMO      -0.108600
     21 N03        -51.8680   -29.1620     9.5580 ns         1 QMO      -0.524900
     22 N11        -46.4120   -29.4930     2.6420 ns         1 QMO      -0.481900
     23 O15        -44.4270   -30.7160     4.0610 o          1 QMO      -0.726000
     24 O16        -43.7350   -32.2210     2.7120 o          1 QMO      -0.726000
     25 O20        -42.3640   -26.1430     0.9750 oh         1 QMO      -0.540100
     26 O28        -52.7200   -29.1550     7.4450 o          1 QMO      -0.630100
     27 H172       -43.4330   -28.4560     3.0550 hc         1 QMO       0.060700
     28 H171       -42.3210   -28.9220     1.7600 hc         1 QMO       0.060700
     29 H131       -43.8290   -30.6050     0.8560 hc         1 QMO       0.051700
     30 H121       -46.1810   -30.2800     0.6630 h1         1 QMO       0.067700
     31 H011       -53.9040   -28.3410    12.1710 hc         1 QMO       0.040367
     32 H012       -52.2420   -28.9610    12.2740 hc         1 QMO       0.040367
     33 H013       -52.5650   -27.3970    11.4910 hc         1 QMO       0.040367
     34 H021       -53.8520   -28.5290     9.6980 h1         1 QMO       0.081700
     35 H071       -47.8370   -29.3190     7.3530 ha         1 QMO       0.122500
     36 H081       -46.6570   -29.3880     5.2130 ha         1 QMO       0.135500
     37 H211       -44.0640   -24.8550    -0.5980 ha         1 QMO       0.093000
     38 H221       -46.3330   -25.6630    -1.2300 ha         1 QMO       0.097000
     39 H231       -47.1700   -27.8530    -0.3620 ha         1 QMO       0.133000
     40 H261       -50.4680   -29.3180     3.1330 ha         1 QMO       0.135500
     41 H271       -51.6320   -29.2470     5.2780 ha         1 QMO       0.122500
     42 H293       -53.8780   -31.0080     9.4670 hc         1 QMO       0.040367
     43 H291       -53.0350   -31.1780    11.0220 hc         1 QMO       0.040367
     44 H292       -54.6800   -30.5070    10.9680 hc         1 QMO       0.040367
     45 H031       -51.0090   -29.1880    10.0930 hn         1 QMO       0.299500
     46 H051       -49.7580   -29.2530     8.5380 hn         1 QMO       0.140000
     47 H111       -45.9500   -29.6190     3.5360 hn         1 QMO       0.377500
     48 H201       -42.2190   -25.2740     0.5440 ho         1 QMO       0.444000
     49 C10        -47.7880   -29.4050     2.6310 c          1 QMO       0.606700
     50 O25        -48.4280   -29.3650     1.5870 o          1 QMO      -0.666100
     51 N05        -50.4250   -29.2380     7.7780 ns         1 QMO      -0.163000
@<TRIPOS>BOND
     1     1     2 1   
     2     1     6 ar  
     3     1    17 ar  
     4     2     4 1   
     5     2    27 1   
     6     2    28 1   
     7     3     4 1   
     8     3    23 1   
     9     3    24 1   
    10     4     5 1   
    11     4    29 1   
    12     5    17 1   
    13     5    22 1   
    14     5    30 1   
    15     6    14 ar  
    16     6    25 1   
    17     7     8 1   
    18     7    31 1   
    19     7    32 1   
    20     7    33 1   
    21     8    20 1   
    22     8    21 1   
    23     8    34 1   
    24     9    21 1   
    25     9    26 2   
    26     9    51 1   
    27    10    11 ar  
    28    10    19 ar  
    29    10    51 1   
    30    11    12 ar  
    31    11    35 1   
    32    12    13 ar  
    33    12    36 1   
    34    13    18 ar  
    35    13    49 1   
    36    14    15 ar  
    37    14    37 1   
    38    15    16 ar  
    39    15    38 1   
    40    16    17 ar  
    41    16    39 1   
    42    18    19 ar  
    43    18    40 1   
    44    19    41 1   
    45    20    42 1   
    46    20    43 1   
    47    20    44 1   
    48    21    45 1   
    49    22    47 1   
    50    22    49 1   
    51    25    48 1   
    52    46    51 1   
    53    49    50 2   
@<TRIPOS>SUBSTRUCTURE
     1 QMO         1 TEMP              0 ****  ****    0 ROOT
