@<TRIPOS>MOLECULE
QMP
   25    25     1     0     0
SMALL
No Charge or Current Charge


@<TRIPOS>ATOM
      1 CAG          1.3340     1.1510     0.0990 c6         1 QMP      -0.094400
      2 CAE          2.7580     1.0610     0.7050 c6         1 QMP      -0.072400
      3 CAD          3.6440     0.0610    -0.0740 c6         1 QMP      -0.072400
      4 CAF          2.9800    -1.3350    -0.1390 c6         1 QMP      -0.072400
      5 CAH          1.5640    -1.2480    -0.7590 c6         1 QMP      -0.094400
      6 CAJ          0.6590    -0.2510     0.0110 c6         1 QMP       0.242300
      7 OAI         -0.6310    -0.2190    -0.6260 os         1 QMP      -0.605400
      8 PAK         -1.8440     0.6560    -0.0170 p5         1 QMP       1.398400
      9 CAA         -3.2000    -0.0690    -1.0090 c3         1 QMP      -0.450100
     10 OAC         -1.7270     2.1130    -0.3240 o          1 QMP      -0.836000
     11 OAB         -2.0850     0.3620     1.4280 o          1 QMP      -0.836000
     12 H1           0.7380     1.8290     0.7220 hc         1 QMP       0.048200
     13 H2           1.3870     1.6000    -0.9030 hc         1 QMP       0.048200
     14 H3           3.2270     2.0540     0.7020 hc         1 QMP       0.026950
     15 H4           2.6910     0.7520     1.7570 hc         1 QMP       0.026950
     16 H5           3.8210     0.4360    -1.0910 hc         1 QMP       0.022200
     17 H6           4.6290    -0.0170     0.4070 hc         1 QMP       0.022200
     18 H7           3.6050    -2.0170    -0.7310 hc         1 QMP       0.026950
     19 H8           2.9180    -1.7640     0.8710 hc         1 QMP       0.026950
     20 H9           1.6410    -0.9390    -1.8100 hc         1 QMP       0.048200
     21 H10          1.1010    -2.2430    -0.7580 hc         1 QMP       0.048200
     22 H11          0.5250    -0.6340     1.0330 h1         1 QMP       0.033700
     23 H12         -3.2610    -1.1450    -0.8180 hc         1 QMP       0.037033
     24 H13         -4.1490     0.4030    -0.7340 hc         1 QMP       0.037033
     25 H14         -3.0060     0.1000    -2.0740 hc         1 QMP       0.037033
@<TRIPOS>BOND
     1     1     2 1   
     2     1     6 1   
     3     1    12 1   
     4     1    13 1   
     5     2     3 1   
     6     2    14 1   
     7     2    15 1   
     8     3     4 1   
     9     3    16 1   
    10     3    17 1   
    11     4     5 1   
    12     4    18 1   
    13     4    19 1   
    14     5     6 1   
    15     5    20 1   
    16     5    21 1   
    17     6     7 1   
    18     6    22 1   
    19     7     8 1   
    20     8     9 1   
    21     8    10 1   
    22     8    11 1   
    23     9    23 1   
    24     9    24 1   
    25     9    25 1   
@<TRIPOS>SUBSTRUCTURE
     1 QMP         1 TEMP              0 ****  ****    0 ROOT
