@<TRIPOS>MOLECULE
QMP
   25    25     1     0     0
SMALL
abcg2


@<TRIPOS>ATOM
      1 CAG          1.4350     1.2220    -0.2430 c6         1 QMP      -0.094400
      2 CAE          2.8220     1.1930     0.3940 c6         1 QMP      -0.072400
      3 CAD          3.6330    -0.0010    -0.1000 c6         1 QMP      -0.072400
      4 CAF          2.8820    -1.3070     0.1350 c6         1 QMP      -0.072400
      5 CAH          1.4930    -1.2770    -0.4970 c6         1 QMP      -0.094400
      6 CAJ          0.6890    -0.0830    -0.0020 c6         1 QMP       0.242300
      7 OAI         -0.5670    -0.0630    -0.6660 os         1 QMP      -0.605400
      8 PAK         -1.9300     0.1610     0.2480 p5         1 QMP       1.398400
      9 CAA         -3.1310     0.2110    -1.1180 c3         1 QMP      -0.450100
     10 OAC         -1.8580     1.5050     0.9310 o          1 QMP      -0.836000
     11 OAB         -2.1620    -1.0660     1.0940 o          1 QMP      -0.836000
     12 H1           0.8460     2.0520     0.1530 hc         1 QMP       0.048200
     13 H2           1.5340     1.3820    -1.3230 hc         1 QMP       0.048200
     14 H3           3.3480     2.1270     0.1800 hc         1 QMP       0.026950
     15 H4           2.7230     1.1380     1.4840 hc         1 QMP       0.026950
     16 H5           3.8280     0.1160    -1.1720 hc         1 QMP       0.022200
     17 H6           4.6070    -0.0300     0.3930 hc         1 QMP       0.022200
     18 H7           3.4520    -2.1510    -0.2610 hc         1 QMP       0.026950
     19 H8           2.7870    -1.4790     1.2130 hc         1 QMP       0.026950
     20 H9           1.5870    -1.2190    -1.5880 hc         1 QMP       0.048200
     21 H10          0.9540    -2.2000    -0.2710 hc         1 QMP       0.048200
     22 H11          0.5530    -0.2020     1.0830 h1         1 QMP       0.033700
     23 H12         -3.1250    -0.7130    -1.6970 hc         1 QMP       0.037033
     24 H13         -4.1340     0.3360    -0.7060 hc         1 QMP       0.037033
     25 H14         -2.9460     1.0430    -1.7970 hc         1 QMP       0.037033
@<TRIPOS>BOND
     1     1     2 1   
     2     1     6 1   
     3     1    12 1   
     4     1    13 1   
     5     2     3 1   
     6     2    14 1   
     7     2    15 1   
     8     3     4 1   
     9     3    16 1   
    10     3    17 1   
    11     4     5 1   
    12     4    18 1   
    13     4    19 1   
    14     5     6 1   
    15     5    20 1   
    16     5    21 1   
    17     6     7 1   
    18     6    22 1   
    19     7     8 1   
    20     8     9 1   
    21     8    10 1   
    22     8    11 1   
    23     9    23 1   
    24     9    24 1   
    25     9    25 1   
@<TRIPOS>SUBSTRUCTURE
     1 QMP         1 TEMP              0 ****  ****    0 ROOT
