@<TRIPOS>MOLECULE
QMQ
   71    75     1     0     0
SMALL
bcc


@<TRIPOS>ATOM
      1 CAA         11.6330     0.5700     2.3050 c3         1 QMQ       0.007100
      2 NBI         11.1400     1.0320     1.0190 nh         1 QMQ      -0.218100
      3 CAB         11.7330     2.2090     0.4080 c3         1 QMQ       0.007100
      4 CBE         10.1790     0.3620     0.3910 cc         1 QMQ       0.434900
      5 CAM          9.5960    -0.8120     0.9370 cc         1 QMQ      -0.333600
      6 CAP          8.6060    -1.4610     0.2680 cd         1 QMQ       0.125500
      7 CAL          9.6750     0.7750    -0.8710 cc         1 QMQ      -0.333600
      8 CAO          8.6820     0.0710    -1.4770 cd         1 QMQ       0.125500
      9 NBK          8.1480    -1.0350    -0.9250 na         1 QMQ      -0.421200
     10 CAW          7.0150    -1.7190    -1.5690 c3         1 QMQ       0.253100
     11 CBD          5.7010    -1.1920    -1.0630 ca         1 QMQ      -0.165300
     12 CAK          5.1180    -0.0720    -1.6450 ca         1 QMQ      -0.101000
     13 CAG          3.9280     0.4390    -1.1500 ca         1 QMQ      -0.121000
     14 CAJ          5.0660    -1.7950     0.0180 ca         1 QMQ      -0.101000
     15 CAF          3.8750    -1.2810     0.5090 ca         1 QMQ      -0.121000
     16 CBB          3.2880    -0.1560    -0.0640 ca         1 QMQ      -0.031300
     17 CAU          1.9690     0.3630     0.4320 c3         1 QMQ      -0.044100
     18 CAS          0.7920    -0.3090    -0.2770 c3         1 QMQ      -0.073400
     19 CAR         -0.5540     0.2100     0.2070 c3         1 QMQ      -0.075400
     20 CAT         -1.7320    -0.4550    -0.5070 c3         1 QMQ      -0.030100
     21 CBA         -3.0530     0.0770    -0.0260 ca         1 QMQ      -0.072300
     22 CAE         -3.5810     1.2540    -0.5560 ca         1 QMQ      -0.130000
     23 CAI         -4.7720     1.7790    -0.0790 ca         1 QMQ      -0.097000
     24 CAD         -3.7550    -0.5560     0.9950 ca         1 QMQ      -0.130000
     25 CAH         -4.9500    -0.0340     1.4720 ca         1 QMQ      -0.097000
     26 CBC         -5.4700     1.1400     0.9420 ca         1 QMQ      -0.116300
     27 CAV         -6.7780     1.6980     1.4360 c3         1 QMQ       0.107600
     28 N9          -7.8760     1.3810     0.5400 na         1 QMQ      -0.250000
     29 C8          -8.4150     2.1840    -0.4210 cc         1 QMQ       0.399700
     30 N7          -9.3460     1.6050    -1.1240 nd         1 QMQ      -0.547100
     31 C5          -9.4220     0.3410    -0.5990 ca         1 QMQ      -0.232200
     32 C4          -8.5120     0.1810     0.4350 ca         1 QMQ       0.454800
     33 N3          -8.3260    -0.9180     1.1650 nb         1 QMQ      -0.753000
     34 C2          -9.1330    -1.8940     0.7890 ca         1 QMQ       0.709900
     35 N1         -10.0470    -1.8870    -0.1780 nb         1 QMQ      -0.828000
     36 C6         -10.2240    -0.7750    -0.9010 ca         1 QMQ       0.783200
     37 N6         -11.1420    -0.7640    -1.8690 nv         1 QMQ      -0.953500
     38 HAA1        10.8250     0.4950     3.0340 h1         1 QMQ       0.069367
     39 HAA2        12.1210    -0.4020     2.2220 h1         1 QMQ       0.069367
     40 HAA3        12.3590     1.2810     2.6850 h1         1 QMQ       0.069367
     41 HAB1        12.2220     1.9640    -0.5360 h1         1 QMQ       0.069367
     42 HAB2        10.9830     2.9790     0.2240 h1         1 QMQ       0.069367
     43 HAB3        12.4790     2.6200     1.0790 h1         1 QMQ       0.069367
     44 HAM          9.9140    -1.2240     1.8820 ha         1 QMQ       0.180000
     45 HAL         10.0560     1.6450    -1.3840 ha         1 QMQ       0.180000
     46 HAP          8.1510    -2.3550     0.6690 h4         1 QMQ       0.188500
     47 HAO          8.2880     0.3700    -2.4370 h4         1 QMQ       0.188500
     48 HAW1         7.1160    -1.5780    -2.6430 h1         1 QMQ       0.087700
     49 HAW2         7.1200    -2.7840    -1.3680 h1         1 QMQ       0.087700
     50 HAK          5.5910     0.4090    -2.4940 ha         1 QMQ       0.128500
     51 HAJ          5.4980    -2.6750     0.4800 ha         1 QMQ       0.128500
     52 HAG          3.4870     1.3110    -1.6190 ha         1 QMQ       0.148500
     53 HAF          3.3930    -1.7670     1.3500 ha         1 QMQ       0.148500
     54 HAU1         1.8840     0.1950     1.5090 hc         1 QMQ       0.057700
     55 HAU2         1.9120     1.4430     0.2760 hc         1 QMQ       0.057700
     56 HAS1         0.8810    -0.1490    -1.3560 hc         1 QMQ       0.044200
     57 HAS2         0.8480    -1.3920    -0.1230 hc         1 QMQ       0.044200
     58 HAR1        -0.6470     0.0460     1.2860 hc         1 QMQ       0.045200
     59 HAR2        -0.6060     1.2930     0.0570 hc         1 QMQ       0.045200
     60 HAT1        -1.6370    -0.2910    -1.5840 hc         1 QMQ       0.048700
     61 HAT2        -1.6870    -1.5350    -0.3480 hc         1 QMQ       0.048700
     62 HAE         -3.0510     1.7680    -1.3500 ha         1 QMQ       0.130000
     63 HAD         -3.3650    -1.4720     1.4240 ha         1 QMQ       0.130000
     64 HAI         -5.1560     2.6980    -0.5070 ha         1 QMQ       0.139000
     65 HAH         -5.4870    -0.5510     2.2570 ha         1 QMQ       0.139000
     66 HAV1        -7.0190     1.3060     2.4230 h1         1 QMQ       0.070200
     67 HAV2        -6.7330     2.7840     1.5210 h1         1 QMQ       0.070200
     68 H8          -8.0800     3.2030    -0.5490 h5         1 QMQ       0.062800
     69 H2          -9.0420    -2.8260     1.3360 h5         1 QMQ       0.045100
     70 H61N       -11.3050     0.0590    -2.4210 hn         1 QMQ       0.453300
     71 H62N       -11.7010    -1.5790    -2.0500 hn         1 QMQ       0.453300
@<TRIPOS>BOND
     1     1     2 1   
     2     1    38 1   
     3     1    39 1   
     4     1    40 1   
     5     2     3 1   
     6     2     4 2   
     7     3    41 1   
     8     3    42 1   
     9     3    43 1   
    10     4     5 1   
    11     4     7 1   
    12     5     6 2   
    13     5    44 1   
    14     6     9 1   
    15     6    46 1   
    16     7     8 2   
    17     7    45 1   
    18     8     9 1   
    19     8    47 1   
    20     9    10 1   
    21    10    11 1   
    22    10    48 1   
    23    10    49 1   
    24    11    12 ar  
    25    11    14 ar  
    26    12    13 ar  
    27    12    50 1   
    28    13    16 ar  
    29    13    52 1   
    30    14    15 ar  
    31    14    51 1   
    32    15    16 ar  
    33    15    53 1   
    34    16    17 1   
    35    17    18 1   
    36    17    54 1   
    37    17    55 1   
    38    18    19 1   
    39    18    56 1   
    40    18    57 1   
    41    19    20 1   
    42    19    58 1   
    43    19    59 1   
    44    20    21 1   
    45    20    60 1   
    46    20    61 1   
    47    21    22 ar  
    48    21    24 ar  
    49    22    23 ar  
    50    22    62 1   
    51    23    26 ar  
    52    23    64 1   
    53    24    25 ar  
    54    24    63 1   
    55    25    26 ar  
    56    25    65 1   
    57    26    27 1   
    58    27    28 1   
    59    27    66 1   
    60    27    67 1   
    61    28    29 1   
    62    28    32 1   
    63    29    30 2   
    64    29    68 1   
    65    30    31 1   
    66    31    32 ar  
    67    31    36 ar  
    68    32    33 ar  
    69    33    34 ar  
    70    34    35 ar  
    71    34    69 1   
    72    35    36 ar  
    73    36    37 1   
    74    37    70 1   
    75    37    71 1   
@<TRIPOS>SUBSTRUCTURE
     1 QMQ         1 TEMP              0 ****  ****    0 ROOT
