@<TRIPOS>MOLECULE
QMQ
   71    75     1     0     0
SMALL
No Charge or Current Charge


@<TRIPOS>ATOM
      1 CAA         11.4580     1.4620     2.3960 c3         1 QMQ       0.036400
      2 NBI         11.3970     1.1960     0.9440 nh         1 QMQ      -0.276700
      3 CAB         12.5040     1.7500     0.1360 c3         1 QMQ       0.036400
      4 CBE         10.3590     0.4640     0.3700 cc         1 QMQ       0.434900
      5 CAM          9.5710    -0.4270     1.1330 cc         1 QMQ      -0.383600
      6 CAP          8.5400    -1.1600     0.5890 cd         1 QMQ       0.075500
      7 CAL         10.0430     0.5800    -1.0020 cc         1 QMQ      -0.383600
      8 CAO          9.0210    -0.1310    -1.5940 cd         1 QMQ       0.075500
      9 NBK          8.2620    -1.0180    -0.7910 na         1 QMQ      -0.421200
     10 CAW          7.1550    -1.8020    -1.3920 c3         1 QMQ       0.253100
     11 CBD          5.7760    -1.4400    -0.8380 ca         1 QMQ      -0.165300
     12 CAK          5.4270    -0.0990    -0.5710 ca         1 QMQ      -0.083000
     13 CAG          4.1530     0.2190    -0.0710 ca         1 QMQ      -0.103000
     14 CAJ          4.8250    -2.4530    -0.6050 ca         1 QMQ      -0.083000
     15 CAF          3.5510    -2.1330    -0.1060 ca         1 QMQ      -0.103000
     16 CBB          3.2080    -0.7950     0.1670 ca         1 QMQ      -0.031300
     17 CAU          1.8240    -0.4480     0.6990 c3         1 QMQ      -0.044100
     18 CAS          0.8250    -0.1480    -0.4390 c3         1 QMQ      -0.073400
     19 CAR         -0.5900     0.2020     0.0710 c3         1 QMQ      -0.075400
     20 CAT         -1.5870     0.5030    -1.0690 c3         1 QMQ      -0.030100
     21 CBA         -2.9750     0.8390    -0.5410 ca         1 QMQ      -0.072300
     22 CAE         -3.3210     2.1710    -0.2460 ca         1 QMQ      -0.112000
     23 CAI         -4.6010     2.4820     0.2450 ca         1 QMQ      -0.079000
     24 CAD         -3.9230    -0.1800    -0.3340 ca         1 QMQ      -0.112000
     25 CAH         -5.2030     0.1290     0.1570 ca         1 QMQ      -0.079000
     26 CBC         -5.5530     1.4630     0.4460 ca         1 QMQ      -0.116300
     27 CAV         -6.9400     1.8080     0.9830 c3         1 QMQ       0.136900
     28 N9          -8.0350     1.1930     0.2150 na         1 QMQ      -0.279300
     29 C8          -8.5500     1.5960    -1.0180 cc         1 QMQ       0.399700
     30 N7          -9.5580     0.7880    -1.4020 nd         1 QMQ      -0.547100
     31 C5          -9.6460    -0.1410    -0.3540 ca         1 QMQ      -0.101600
     32 C4          -8.7270     0.0950     0.6390 ca         1 QMQ       0.126500
     33 N3          -8.6400    -0.6750     1.7420 nb         1 QMQ      -0.227000
     34 C2          -9.5230    -1.7010     1.8090 ca         1 QMQ       0.183900
     35 N1         -10.4670    -2.0210     0.8900 nb         1 QMQ      -0.302000
     36 C6         -10.5220    -1.2350    -0.1970 ca         1 QMQ       0.454900
     37 N6         -11.4710    -1.5530    -1.1180 nv         1 QMQ      -1.063900
     38 HAA1        10.4560     1.6730     2.7920 h1         1 QMQ       0.069367
     39 HAA2        11.8720     0.5940     2.9260 h1         1 QMQ       0.069367
     40 HAA3        12.0920     2.3330     2.6100 h1         1 QMQ       0.069367
     41 HAB1        12.7990     1.0440    -0.6510 h1         1 QMQ       0.069367
     42 HAB2        12.1970     2.6940    -0.3320 h1         1 QMQ       0.069367
     43 HAB3        13.3870     1.9440     0.7590 h1         1 QMQ       0.069367
     44 HAM          9.7930    -0.5490     2.1870 ha         1 QMQ       0.230000
     45 HAL         10.6160     1.2670    -1.6140 ha         1 QMQ       0.230000
     46 HAP          7.9200    -1.8510     1.1610 h4         1 QMQ       0.238500
     47 HAO          8.7620    -0.0470    -2.6490 h4         1 QMQ       0.238500
     48 HAW1         7.1460    -1.6570    -2.4800 h1         1 QMQ       0.087700
     49 HAW2         7.3530    -2.8680    -1.2160 h1         1 QMQ       0.087700
     50 HAK          6.1420     0.7020    -0.7520 ha         1 QMQ       0.110500
     51 HAJ          5.0700    -3.4930    -0.8120 ha         1 QMQ       0.110500
     52 HAG          3.8990     1.2580     0.1280 ha         1 QMQ       0.130500
     53 HAF          2.8270    -2.9270     0.0670 ha         1 QMQ       0.130500
     54 HAU1         1.4380    -1.2740     1.3090 hc         1 QMQ       0.057700
     55 HAU2         1.8850     0.4210     1.3650 hc         1 QMQ       0.057700
     56 HAS1         1.2090     0.6860    -1.0420 hc         1 QMQ       0.044200
     57 HAS2         0.7650    -1.0200    -1.1020 hc         1 QMQ       0.044200
     58 HAR1        -0.9750    -0.6310     0.6720 hc         1 QMQ       0.045200
     59 HAR2        -0.5310     1.0740     0.7340 hc         1 QMQ       0.045200
     60 HAT1        -1.2030     1.3350    -1.6730 hc         1 QMQ       0.048700
     61 HAT2        -1.6400    -0.3630    -1.7400 hc         1 QMQ       0.048700
     62 HAE         -2.5960     2.9690    -0.3950 ha         1 QMQ       0.112000
     63 HAD         -3.6670    -1.2150    -0.5510 ha         1 QMQ       0.112000
     64 HAI         -4.8500     3.5170     0.4690 ha         1 QMQ       0.121000
     65 HAH         -5.9210    -0.6730     0.3140 ha         1 QMQ       0.121000
     66 HAV1        -7.0070     1.4880     2.0300 h1         1 QMQ       0.070200
     67 HAV2        -7.0810     2.8970     0.9690 h1         1 QMQ       0.070200
     68 H8          -8.1640     2.4510    -1.5610 h5         1 QMQ       0.062800
     69 H2          -9.4680    -2.3330     2.6930 h5         1 QMQ       0.045100
     70 H61N       -11.6730    -0.8470    -1.8230 hn         1 QMQ       0.508500
     71 H62N       -12.2490    -2.1370    -0.8240 hn         1 QMQ       0.508500
@<TRIPOS>BOND
     1     1     2 1   
     2     1    38 1   
     3     1    39 1   
     4     1    40 1   
     5     2     3 1   
     6     2     4 2   
     7     3    41 1   
     8     3    42 1   
     9     3    43 1   
    10     4     5 1   
    11     4     7 1   
    12     5     6 2   
    13     5    44 1   
    14     6     9 1   
    15     6    46 1   
    16     7     8 2   
    17     7    45 1   
    18     8     9 1   
    19     8    47 1   
    20     9    10 1   
    21    10    11 1   
    22    10    48 1   
    23    10    49 1   
    24    11    12 ar  
    25    11    14 ar  
    26    12    13 ar  
    27    12    50 1   
    28    13    16 ar  
    29    13    52 1   
    30    14    15 ar  
    31    14    51 1   
    32    15    16 ar  
    33    15    53 1   
    34    16    17 1   
    35    17    18 1   
    36    17    54 1   
    37    17    55 1   
    38    18    19 1   
    39    18    56 1   
    40    18    57 1   
    41    19    20 1   
    42    19    58 1   
    43    19    59 1   
    44    20    21 1   
    45    20    60 1   
    46    20    61 1   
    47    21    22 ar  
    48    21    24 ar  
    49    22    23 ar  
    50    22    62 1   
    51    23    26 ar  
    52    23    64 1   
    53    24    25 ar  
    54    24    63 1   
    55    25    26 ar  
    56    25    65 1   
    57    26    27 1   
    58    27    28 1   
    59    27    66 1   
    60    27    67 1   
    61    28    29 1   
    62    28    32 1   
    63    29    30 2   
    64    29    68 1   
    65    30    31 1   
    66    31    32 ar  
    67    31    36 ar  
    68    32    33 ar  
    69    33    34 ar  
    70    34    35 ar  
    71    34    69 1   
    72    35    36 ar  
    73    36    37 1   
    74    37    70 1   
    75    37    71 1   
@<TRIPOS>SUBSTRUCTURE
     1 QMQ         1 TEMP              0 ****  ****    0 ROOT
