@<TRIPOS>MOLECULE
QMR
   29    32     1     0     0
SMALL
No Charge or Current Charge


@<TRIPOS>ATOM
      1 C01          2.8670     1.2810     0.8280 c6         1 QMR       0.173800
      2 N02          2.6940     0.0120     1.6070 n7         1 QMR      -0.875400
      3 C03          2.8780    -1.2530     0.8240 c6         1 QMR       0.173800
      4 C04          2.1620    -1.1860    -0.5620 c5         1 QMR      -0.026400
      5 C05          2.7190     0.0180    -1.4040 c5         1 QMR      -0.082400
      6 C06          2.1530     1.2140    -0.5580 c5         1 QMR      -0.026400
      7 C07          0.7370     0.6970    -0.4100 ca         1 QMR      -0.054300
      8 C08         -0.4550     1.4180    -0.2690 ca         1 QMR      -0.068000
      9 C09         -1.6740     0.7200    -0.1290 ca         1 QMR       0.229000
     10 N10         -2.8310     1.4260     0.0050 nb         1 QMR      -0.628500
     11 C11         -3.9700     0.6960     0.1360 ca         1 QMR       0.291900
     12 C12         -3.9650    -0.7200     0.1340 ca         1 QMR       0.291900
     13 N13         -2.8190    -1.4410     0.0000 nb         1 QMR      -0.628500
     14 C14         -1.6680    -0.7250    -0.1320 ca         1 QMR       0.229000
     15 C15         -0.4440    -1.4120    -0.2740 ca         1 QMR      -0.068000
     16 C16          0.7420    -0.6810    -0.4130 ca         1 QMR      -0.054300
     17 H011         2.4690     2.1230     1.4140 h1         1 QMR       0.034200
     18 H012         3.9400     1.4680     0.6700 h1         1 QMR       0.034200
     19 H02          3.3190     0.0130     2.4240 hn         1 QMR       0.419000
     20 H06          2.2390     2.1870    -1.0550 hc         1 QMR       0.070700
     21 H031         3.9520    -1.4300     0.6650 h1         1 QMR       0.034200
     22 H032         2.4860    -2.0990     1.4070 h1         1 QMR       0.034200
     23 H04          2.2570    -2.1570    -1.0620 hc         1 QMR       0.070700
     24 H051         3.8130     0.0220    -1.4720 hc         1 QMR       0.053200
     25 H052         2.3250     0.0180    -2.4280 hc         1 QMR       0.053200
     26 H08         -0.4420     2.5040    -0.2640 ha         1 QMR       0.133000
     27 H11         -4.9010     1.2510     0.2450 h4         1 QMR       0.027100
     28 H12         -4.8910    -1.2830     0.2400 h4         1 QMR       0.027100
     29 H15         -0.4220    -2.4980    -0.2730 ha         1 QMR       0.133000
@<TRIPOS>BOND
     1     1     2 1   
     2     1     6 1   
     3     1    17 1   
     4     1    18 1   
     5     2     3 1   
     6     2    19 1   
     7     3     4 1   
     8     3    21 1   
     9     3    22 1   
    10     4     5 1   
    11     4    16 1   
    12     4    23 1   
    13     5     6 1   
    14     5    24 1   
    15     5    25 1   
    16     6     7 1   
    17     6    20 1   
    18     7     8 ar  
    19     7    16 ar  
    20     8     9 ar  
    21     8    26 1   
    22     9    10 ar  
    23     9    14 ar  
    24    10    11 ar  
    25    11    12 ar  
    26    11    27 1   
    27    12    13 ar  
    28    12    28 1   
    29    13    14 ar  
    30    14    15 ar  
    31    15    16 ar  
    32    15    29 1   
@<TRIPOS>SUBSTRUCTURE
     1 QMR         1 TEMP              0 ****  ****    0 ROOT
