@<TRIPOS>MOLECULE
QMR
   29    32     1     0     0
SMALL
bcc


@<TRIPOS>ATOM
      1 C01          2.8360     1.2380     0.7970 c6         1 QMR       0.173800
      2 N02          2.5620     0.0120     1.5260 n7         1 QMR      -0.820200
      3 C03          2.8450    -1.2090     0.7930 c6         1 QMR       0.173800
      4 C04          2.1580    -1.1640    -0.5800 c5         1 QMR      -0.026400
      5 C05          2.7500     0.0180    -1.3630 c5         1 QMR      -0.082400
      6 C06          2.1490     1.1920    -0.5760 c5         1 QMR      -0.026400
      7 C07          0.7280     0.7200    -0.4100 ca         1 QMR      -0.054300
      8 C08         -0.4280     1.4220    -0.2640 ca         1 QMR      -0.151300
      9 C09         -1.6450     0.7080    -0.1160 ca         1 QMR       0.294300
     10 N10         -2.8000     1.3910     0.0260 nb         1 QMR      -0.628500
     11 C11         -3.8960     0.6930     0.1620 ca         1 QMR       0.291900
     12 C12         -3.8900    -0.7170     0.1600 ca         1 QMR       0.291900
     13 N13         -2.7890    -1.4050     0.0200 nb         1 QMR      -0.628500
     14 C14         -1.6390    -0.7130    -0.1180 ca         1 QMR       0.294300
     15 C15         -0.4170    -1.4160    -0.2690 ca         1 QMR      -0.151300
     16 C16          0.7330    -0.7030    -0.4130 ca         1 QMR      -0.054300
     17 H011         2.4500     2.0780     1.3790 h1         1 QMR       0.034200
     18 H012         3.9090     1.4240     0.6310 h1         1 QMR       0.034200
     19 H02          3.0600     0.0130     2.4050 hn         1 QMR       0.363800
     20 H06          2.2380     2.1580    -1.0730 hc         1 QMR       0.070700
     21 H031         3.9190    -1.3870     0.6270 h1         1 QMR       0.034200
     22 H032         2.4660    -2.0550     1.3720 h1         1 QMR       0.034200
     23 H04          2.2550    -2.1280    -1.0800 hc         1 QMR       0.070700
     24 H051         3.8420     0.0220    -1.3670 hc         1 QMR       0.053200
     25 H052         2.4080     0.0180    -2.4010 hc         1 QMR       0.053200
     26 H08         -0.4530     2.5050    -0.2590 ha         1 QMR       0.151000
     27 H11         -4.8300     1.2320     0.2800 h4         1 QMR       0.027100
     28 H12         -4.8200    -1.2640     0.2750 h4         1 QMR       0.027100
     29 H15         -0.4320    -2.4990    -0.2680 ha         1 QMR       0.151000
@<TRIPOS>BOND
     1     1     2 1   
     2     1     6 1   
     3     1    17 1   
     4     1    18 1   
     5     2     3 1   
     6     2    19 1   
     7     3     4 1   
     8     3    21 1   
     9     3    22 1   
    10     4     5 1   
    11     4    16 1   
    12     4    23 1   
    13     5     6 1   
    14     5    24 1   
    15     5    25 1   
    16     6     7 1   
    17     6    20 1   
    18     7     8 ar  
    19     7    16 ar  
    20     8     9 ar  
    21     8    26 1   
    22     9    10 ar  
    23     9    14 ar  
    24    10    11 ar  
    25    11    12 ar  
    26    11    27 1   
    27    12    13 ar  
    28    12    28 1   
    29    13    14 ar  
    30    14    15 ar  
    31    15    16 ar  
    32    15    29 1   
@<TRIPOS>SUBSTRUCTURE
     1 QMR         1 TEMP              0 ****  ****    0 ROOT
