@<TRIPOS>MOLECULE
QMS
   25    26     1     0     0
SMALL
abcg2


@<TRIPOS>ATOM
      1 O2           3.0460     1.0400     0.1380 o          1 QMS      -0.527500
      2 S1           2.4970    -0.3050     0.1190 s6         1 QMS       1.174100
      3 O1           3.3200    -1.4040    -0.3560 o          1 QMS      -0.527500
      4 C7           1.8930    -0.6830     1.7480 c3         1 QMS      -0.379100
      5 N1           1.1550    -0.2970    -0.8790 nu         1 QMS      -0.836100
      6 C3           0.0730     0.5560    -0.5700 ca         1 QMS       0.249000
      7 C2           0.1770     1.9220    -0.6330 ca         1 QMS      -0.089000
      8 C4          -1.1680    -0.0470    -0.2220 ca         1 QMS       0.241000
      9 N2          -1.2360    -1.3950    -0.1960 nb         1 QMS      -0.694000
     10 C8          -2.3770    -1.9540     0.1050 ca         1 QMS       0.366900
     11 C9          -3.5470    -1.2270     0.4080 ca         1 QMS      -0.164000
     12 C10         -3.4940     0.1380     0.3880 ca         1 QMS      -0.054000
     13 C5          -2.2790     0.7800     0.0640 ca         1 QMS      -0.069000
     14 C6          -2.1340     2.1840     0.0220 ca         1 QMS      -0.096000
     15 C1          -0.9290     2.7350    -0.3200 ca         1 QMS      -0.091000
     16 H71          1.1370     0.0450     2.0370 h1         1 QMS       0.103700
     17 H72          1.4790    -1.6880     1.7550 h1         1 QMS       0.103700
     18 H73          2.7370    -0.6240     2.4330 h1         1 QMS       0.103700
     19 HN1          0.8410    -1.2540    -1.0340 hn         1 QMS       0.507000
     20 H2           1.1080     2.3810    -0.9330 ha         1 QMS       0.154000
     21 H8          -2.4040    -3.0380     0.1130 h4         1 QMS       0.023100
     22 H9          -4.4590    -1.7540     0.6510 ha         1 QMS       0.129000
     23 H10         -4.3690     0.7340     0.6150 ha         1 QMS       0.124000
     24 H6          -2.9840     2.8130     0.2550 ha         1 QMS       0.122000
     25 H1          -0.8200     3.8100    -0.3660 ha         1 QMS       0.126000
@<TRIPOS>BOND
     1     1     2 2   
     2     2     3 2   
     3     2     4 1   
     4     2     5 1   
     5     4    16 1   
     6     4    17 1   
     7     4    18 1   
     8     5     6 1   
     9     5    19 1   
    10     6     7 ar  
    11     6     8 ar  
    12     7    15 ar  
    13     7    20 1   
    14     8     9 ar  
    15     8    13 ar  
    16     9    10 ar  
    17    10    11 ar  
    18    10    21 1   
    19    11    12 ar  
    20    11    22 1   
    21    12    13 ar  
    22    12    23 1   
    23    13    14 ar  
    24    14    15 ar  
    25    14    24 1   
    26    15    25 1   
@<TRIPOS>SUBSTRUCTURE
     1 QMS         1 TEMP              0 ****  ****    0 ROOT
