@<TRIPOS>MOLECULE
QMS
   25    26     1     0     0
SMALL
No Charge or Current Charge


@<TRIPOS>ATOM
      1 O2           3.1920     0.9940    -0.0950 o          1 QMS      -0.527500
      2 S1           2.5830    -0.3270     0.0700 s6         1 QMS       1.174100
      3 O1           3.2800    -1.5320    -0.3810 o          1 QMS      -0.527500
      4 C7           2.0960    -0.5470     1.7680 c3         1 QMS      -0.379100
      5 N1           1.1610    -0.3100    -0.7780 nu         1 QMS      -0.836100
      6 C3           0.0530     0.5050    -0.5070 ca         1 QMS       0.249000
      7 C2           0.1710     1.9080    -0.5170 ca         1 QMS      -0.089000
      8 C4          -1.2090    -0.1040    -0.2350 ca         1 QMS       0.241000
      9 N2          -1.3320    -1.4650    -0.2310 nb         1 QMS      -0.694000
     10 C8          -2.5410    -2.0110     0.0360 ca         1 QMS       0.366900
     11 C9          -3.6800    -1.2410     0.3110 ca         1 QMS      -0.164000
     12 C10         -3.5740     0.1580     0.3130 ca         1 QMS      -0.054000
     13 C5          -2.3220     0.7360     0.0370 ca         1 QMS      -0.069000
     14 C6          -2.1850     2.1360     0.0330 ca         1 QMS      -0.096000
     15 C1          -0.9410     2.7210    -0.2460 ca         1 QMS      -0.091000
     16 H71          1.4820     0.3130     2.0520 h1         1 QMS       0.103700
     17 H72          1.5310    -1.4820     1.8360 h1         1 QMS       0.103700
     18 H73          3.0120    -0.5930     2.3670 h1         1 QMS       0.103700
     19 HN1          0.9090    -1.2920    -0.8010 hn         1 QMS       0.507000
     20 H2           1.1250     2.3740    -0.7480 ha         1 QMS       0.154000
     21 H8          -2.5960    -3.0990     0.0280 h4         1 QMS       0.023100
     22 H9          -4.6280    -1.7280     0.5200 ha         1 QMS       0.129000
     23 H10         -4.4440     0.7760     0.5250 ha         1 QMS       0.124000
     24 H6          -3.0420     2.7740     0.2410 ha         1 QMS       0.122000
     25 H1          -0.8380     3.8040    -0.2560 ha         1 QMS       0.126000
@<TRIPOS>BOND
     1     1     2 2   
     2     2     3 2   
     3     2     4 1   
     4     2     5 1   
     5     4    16 1   
     6     4    17 1   
     7     4    18 1   
     8     5     6 1   
     9     5    19 1   
    10     6     7 ar  
    11     6     8 ar  
    12     7    15 ar  
    13     7    20 1   
    14     8     9 ar  
    15     8    13 ar  
    16     9    10 ar  
    17    10    11 ar  
    18    10    21 1   
    19    11    12 ar  
    20    11    22 1   
    21    12    13 ar  
    22    12    23 1   
    23    13    14 ar  
    24    14    15 ar  
    25    14    24 1   
    26    15    25 1   
@<TRIPOS>SUBSTRUCTURE
     1 QMS         1 TEMP              0 ****  ****    0 ROOT
