@<TRIPOS>MOLECULE
QMT
   49    52     1     0     0
SMALL
bcc


@<TRIPOS>ATOM
      1 C1           8.1850    21.5670   -11.4830 ca         1 QMT       0.012300
      2 N2           7.5790    19.8930    -9.3650 nb         1 QMT      -0.269000
      3 C3           9.2160    24.5260   -13.4560 c6         1 QMT      -0.073400
      4 C4           8.9760    24.0150   -14.8710 c6         1 QMT      -0.104400
      5 C5           9.1170    22.4980   -14.9390 c6         1 QMT       0.153100
      6 C6          11.4190    22.2220   -15.5920 ca         1 QMT       0.145100
      7 C7          12.7120    21.8990   -15.1740 ca         1 QMT      -0.193000
      8 N            9.7590    19.8400   -12.1300 nv         1 QMT      -0.935500
      9 C            8.8080    20.3020   -11.2700 ca         1 QMT       0.591200
     10 O           10.4490    22.0790   -14.6660 os         1 QMT      -0.324900
     11 C10         12.2880    22.7320   -17.7780 ca         1 QMT      -0.090500
     12 C11         11.2100    22.6420   -16.9040 ca         1 QMT      -0.193000
     13 C12          8.2440    21.8470   -13.8820 c6         1 QMT       0.190800
     14 C13          7.2620    21.9350   -10.5380 ca         1 QMT      -0.231300
     15 C14          6.9810    21.0600    -9.4770 cp         1 QMT       0.390800
     16 C15          6.0080    21.4450    -8.4320 cp         1 QMT      -0.171500
     17 C16          4.9600    20.6000    -8.0430 ca         1 QMT       0.174100
     18 C17          4.0700    21.0100    -7.0530 ca         1 QMT      -0.233000
     19 C18          4.2070    22.2520    -6.4530 ca         1 QMT      -0.078000
     20 C19          5.2320    23.1050    -6.8370 ca         1 QMT      -0.172000
     21 C2           8.3510    23.7890   -12.4440 c6         1 QMT       0.191800
     22 C20          6.1170    22.6930    -7.8220 ca         1 QMT      -0.082000
     23 C8          13.7740    21.9940   -16.0560 ca         1 QMT      -0.090500
     24 C9          13.5720    22.4130   -17.3670 ca         1 QMT      -0.166000
     25 N1           8.5750    22.3560   -12.5550 nh         1 QMT      -0.641000
     26 N3           8.4880    19.5280   -10.2480 nb         1 QMT      -0.398000
     27 O1           4.8270    19.4140    -8.6640 oh         1 QMT      -0.471100
     28 H1          10.2670    24.4130   -13.1820 hc         1 QMT       0.055200
     29 H2           8.9900    25.5930   -13.4020 hc         1 QMT       0.055200
     30 H3           9.6460    24.5070   -15.5790 hc         1 QMT       0.051700
     31 H4           7.9590    24.2630   -15.1890 hc         1 QMT       0.051700
     32 H5           8.7910    22.1230   -15.9150 h1         1 QMT       0.051700
     33 H6          12.8740    21.5750   -14.1530 ha         1 QMT       0.136500
     34 H7          10.3260    19.0840   -11.7790 hn         1 QMT       0.424300
     35 H8          10.2740    20.5340   -12.6480 hn         1 QMT       0.424300
     36 H9          12.1090    23.0600   -18.7940 ha         1 QMT       0.130000
     37 H10         10.2250    22.9010   -17.2660 ha         1 QMT       0.136500
     38 H11          7.1930    22.0580   -14.1260 h1         1 QMT       0.060200
     39 H12          8.3640    20.7650   -13.9160 h1         1 QMT       0.060200
     40 H13          6.7340    22.8770   -10.6110 ha         1 QMT       0.144000
     41 H14          3.2600    20.3540    -6.7540 ha         1 QMT       0.131000
     42 H15          3.5040    22.5510    -5.6860 ha         1 QMT       0.130000
     43 H16          5.3450    24.0760    -6.3750 ha         1 QMT       0.134000
     44 H17          8.6130    24.1070   -11.4340 h1         1 QMT       0.037700
     45 H18          7.2930    24.0450   -12.6040 h1         1 QMT       0.037700
     46 H19          6.9250    23.3510    -8.1200 ha         1 QMT       0.131000
     47 H20         14.7700    21.7410   -15.7130 ha         1 QMT       0.130000
     48 H21         14.4040    22.4890   -18.0540 ha         1 QMT       0.134000
     49 H22          4.0470    18.9550    -8.3330 ho         1 QMT       0.423000
@<TRIPOS>BOND
     1     1     9 ar  
     2     1    14 ar  
     3     1    25 1   
     4     2    15 ar  
     5     2    26 ar  
     6     3     4 1   
     7     3    21 1   
     8     3    28 1   
     9     3    29 1   
    10     4     5 1   
    11     4    30 1   
    12     4    31 1   
    13     5    10 1   
    14     5    13 1   
    15     5    32 1   
    16     6     7 ar  
    17     6    10 1   
    18     6    12 ar  
    19     7    23 ar  
    20     7    33 1   
    21     8     9 1   
    22     8    34 1   
    23     8    35 1   
    24     9    26 ar  
    25    11    12 ar  
    26    11    24 ar  
    27    11    36 1   
    28    12    37 1   
    29    13    25 1   
    30    13    38 1   
    31    13    39 1   
    32    14    15 ar  
    33    14    40 1   
    34    15    16 1   
    35    16    17 ar  
    36    16    22 ar  
    37    17    18 ar  
    38    17    27 1   
    39    18    19 ar  
    40    18    41 1   
    41    19    20 ar  
    42    19    42 1   
    43    20    22 ar  
    44    20    43 1   
    45    21    25 1   
    46    21    44 1   
    47    21    45 1   
    48    22    46 1   
    49    23    24 ar  
    50    23    47 1   
    51    24    48 1   
    52    27    49 1   
@<TRIPOS>SUBSTRUCTURE
     1 QMT         1 TEMP              0 ****  ****    0 ROOT
