@<TRIPOS>MOLECULE
QMT
   49    52     1     0     0
SMALL
No Charge or Current Charge


@<TRIPOS>ATOM
      1 C1           7.8920    21.6940   -11.7120 ca         1 QMT       0.216000
      2 N2           7.7400    20.0010    -9.5010 nb         1 QMT      -0.269000
      3 C3           9.2500    24.6080   -13.5340 c6         1 QMT      -0.073400
      4 C4           9.1120    24.1720   -15.0180 c6         1 QMT      -0.104400
      5 C5           8.9990    22.6250   -15.1430 c6         1 QMT       0.176300
      6 C6          11.3870    22.0580   -15.5170 ca         1 QMT       0.145100
      7 C7          12.5840    21.6150   -14.9300 ca         1 QMT      -0.175000
      8 N            9.6120    20.0830   -12.4900 nv         1 QMT      -1.045900
      9 C            8.6790    20.4990   -11.5820 ca         1 QMT       0.525900
     10 O           10.2370    21.9720   -14.7560 os         1 QMT      -0.348100
     11 C10         12.6140    22.5910   -17.5620 ca         1 QMT      -0.072500
     12 C11         11.4050    22.5420   -16.8450 ca         1 QMT      -0.175000
     13 C12          7.8320    22.1160   -14.2430 c6         1 QMT       0.190800
     14 C13          7.0190    21.9880   -10.6480 ca         1 QMT      -0.148000
     15 C14          6.9510    21.1060    -9.5420 cp         1 QMT       0.325500
     16 C15          6.0570    21.3910    -8.3720 cp         1 QMT      -0.171500
     17 C16          5.2510    20.3950    -7.7540 ca         1 QMT       0.174100
     18 C17          4.4320    20.7160    -6.6570 ca         1 QMT      -0.215000
     19 C18          4.3930    22.0260    -6.1560 ca         1 QMT      -0.060000
     20 C19          5.1720    23.0240    -6.7580 ca         1 QMT      -0.154000
     21 C2           8.0940    24.0570   -12.6620 c6         1 QMT       0.191800
     22 C20          5.9920    22.7110    -7.8540 ca         1 QMT      -0.064000
     23 C8          13.7930    21.6630   -15.6460 ca         1 QMT      -0.072500
     24 C9          13.8070    22.1530   -16.9610 ca         1 QMT      -0.148000
     25 N1           7.9740    22.5850   -12.8280 nh         1 QMT      -0.779400
     26 N3           8.5930    19.6980   -10.5030 nb         1 QMT      -0.398000
     27 O1           5.2160    19.1150    -8.2230 oh         1 QMT      -0.510100
     28 H1          10.2090    24.2510   -13.1330 hc         1 QMT       0.055200
     29 H2           9.2740    25.7030   -13.4650 hc         1 QMT       0.055200
     30 H3           9.9630    24.5510   -15.5980 hc         1 QMT       0.051700
     31 H4           8.2160    24.6360   -15.4520 hc         1 QMT       0.051700
     32 H5           8.7610    22.3460   -16.1780 h1         1 QMT       0.051700
     33 H6          12.5750    21.2350   -13.9110 ha         1 QMT       0.118500
     34 H7          10.3180    19.4350   -12.1630 hn         1 QMT       0.479500
     35 H8           9.8940    20.7680   -13.1900 hn         1 QMT       0.479500
     36 H9          12.6270    22.9660   -18.5830 ha         1 QMT       0.112000
     37 H10         10.5000    22.8800   -17.3390 ha         1 QMT       0.118500
     38 H11          6.8810    22.4810   -14.6570 h1         1 QMT       0.060200
     39 H12          7.7900    21.0190   -14.2940 h1         1 QMT       0.060200
     40 H13          6.3910    22.8720   -10.6810 ha         1 QMT       0.126000
     41 H14          3.8150    19.9520    -6.1890 ha         1 QMT       0.113000
     42 H15          3.7570    22.2690    -5.3070 ha         1 QMT       0.112000
     43 H16          5.1430    24.0410    -6.3740 ha         1 QMT       0.116000
     44 H17          8.2880    24.3130   -11.6100 h1         1 QMT       0.037700
     45 H18          7.1500    24.5430   -12.9500 h1         1 QMT       0.037700
     46 H19          6.5960    23.4990    -8.3000 ha         1 QMT       0.113000
     47 H20         14.7160    21.3210   -15.1810 ha         1 QMT       0.112000
     48 H21         14.7410    22.1910   -17.5170 ha         1 QMT       0.116000
     49 H22          4.6040    18.5980    -7.6600 ho         1 QMT       0.462000
@<TRIPOS>BOND
     1     1     9 ar  
     2     1    14 ar  
     3     1    25 1   
     4     2    15 ar  
     5     2    26 ar  
     6     3     4 1   
     7     3    21 1   
     8     3    28 1   
     9     3    29 1   
    10     4     5 1   
    11     4    30 1   
    12     4    31 1   
    13     5    10 1   
    14     5    13 1   
    15     5    32 1   
    16     6     7 ar  
    17     6    10 1   
    18     6    12 ar  
    19     7    23 ar  
    20     7    33 1   
    21     8     9 1   
    22     8    34 1   
    23     8    35 1   
    24     9    26 ar  
    25    11    12 ar  
    26    11    24 ar  
    27    11    36 1   
    28    12    37 1   
    29    13    25 1   
    30    13    38 1   
    31    13    39 1   
    32    14    15 ar  
    33    14    40 1   
    34    15    16 1   
    35    16    17 ar  
    36    16    22 ar  
    37    17    18 ar  
    38    17    27 1   
    39    18    19 ar  
    40    18    41 1   
    41    19    20 ar  
    42    19    42 1   
    43    20    22 ar  
    44    20    43 1   
    45    21    25 1   
    46    21    44 1   
    47    21    45 1   
    48    22    46 1   
    49    23    24 ar  
    50    23    47 1   
    51    24    48 1   
    52    27    49 1   
@<TRIPOS>SUBSTRUCTURE
     1 QMT         1 TEMP              0 ****  ****    0 ROOT
