@<TRIPOS>MOLECULE
QMU
   46    49     1     0     0
SMALL
abcg2


@<TRIPOS>ATOM
      1 C1           4.0980    -3.5060   235.9000 c3         1 QMU       0.203000
      2 C2           3.8370    -4.2450   237.2040 c3         1 QMU      -0.107100
      3 C3           3.8700    -2.0100   236.0720 c3         1 QMU      -0.107100
      4 C4           6.1910    -3.3050   234.5950 c          1 QMU       0.542600
      5 C5           7.6280    -3.6770   234.6120 cc         1 QMU       0.227500
      6 C6           8.2940    -4.8470   234.9080 cd         1 QMU      -0.142300
      7 C8           6.5160    -6.7250   235.2810 c5         1 QMU      -0.078400
      8 C9           6.2800    -7.3470   236.6690 c5         1 QMU      -0.089400
      9 C10          7.2610    -6.6100   237.5770 c5         1 QMU       0.103000
     10 C12         10.7410    -6.3270   236.0350 ca         1 QMU      -0.112600
     11 C13         10.7330    -5.4130   234.9690 ca         1 QMU       0.019800
     12 C15         11.7850    -5.3490   234.0600 ca         1 QMU      -0.114000
     13 C16         12.8610    -6.2100   234.1910 ca         1 QMU      -0.080000
     14 C17         12.8710    -7.1660   235.1990 ca         1 QMU      -0.092000
     15 C18         11.8180    -7.2180   236.0990 ca         1 QMU       0.034100
     16 N            8.4140    -6.4500   236.6940 n          1 QMU      -0.407800
     17 C            3.2730    -4.1020   234.7660 c3         1 QMU      -0.107100
     18 O            5.5450    -3.7610   235.6670 os         1 QMU      -0.471100
     19 C11          9.6810    -6.3250   237.1130 c          1 QMU       0.582600
     20 C14          9.7220    -3.2070   234.4270 cd         1 QMU       0.420400
     21 C7           7.9860    -6.2640   235.2940 c5         1 QMU       0.186000
     22 N1           9.6410    -4.5240   234.7920 na         1 QMU      -0.094300
     23 N2           8.5350    -2.6780   234.2980 nc         1 QMU      -0.630000
     24 O1           5.7110    -2.6130   233.7220 o          1 QMU      -0.467000
     25 O2           9.9970    -6.2450   238.2990 o          1 QMU      -0.531000
     26 BR          11.8590    -8.6300   237.3890 br         1 QMU      -0.065100
     27 H5           4.4850    -3.8670   237.9960 hc         1 QMU       0.051144
     28 H3           2.7990    -4.0980   237.5030 hc         1 QMU       0.051144
     29 H4           4.0160    -5.3140   237.0850 hc         1 QMU       0.051144
     30 H7           4.5280    -1.6140   236.8470 hc         1 QMU       0.051144
     31 H6           4.0430    -1.4680   235.1450 hc         1 QMU       0.051144
     32 H8           2.8370    -1.8470   236.3840 hc         1 QMU       0.051144
     33 H10          5.8490    -5.8860   235.1300 hc         1 QMU       0.066700
     34 H11          6.3510    -7.4390   234.4760 hc         1 QMU       0.066700
     35 H13          5.2490    -7.2420   237.0000 hc         1 QMU       0.055200
     36 H12          6.5280    -8.4100   236.6570 hc         1 QMU       0.055200
     37 H15          7.5520    -7.1640   238.4670 h1         1 QMU       0.066200
     38 H14          6.8740    -5.6330   237.8810 h1         1 QMU       0.066200
     39 H17         11.7430    -4.6410   233.2450 ha         1 QMU       0.134000
     40 H18         13.6800    -6.1640   233.4870 ha         1 QMU       0.129000
     41 H19         13.6840    -7.8740   235.2770 ha         1 QMU       0.140000
     42 H1           2.2160    -4.0220   235.0250 hc         1 QMU       0.051144
     43 H2           3.4410    -3.5790   233.8280 hc         1 QMU       0.051144
     44 H            3.5120    -5.1590   234.6350 hc         1 QMU       0.051144
     45 H16         10.6660    -2.7040   234.2980 h5         1 QMU       0.067100
     46 H9           8.5850    -6.9180   234.6570 h1         1 QMU       0.070700
@<TRIPOS>BOND
     1     1     2 1   
     2     1     3 1   
     3     1    17 1   
     4     1    18 1   
     5     2    27 1   
     6     2    28 1   
     7     2    29 1   
     8     3    30 1   
     9     3    31 1   
    10     3    32 1   
    11     4     5 1   
    12     4    18 1   
    13     4    24 2   
    14     5     6 2   
    15     5    23 1   
    16     6    21 1   
    17     6    22 1   
    18     7     8 1   
    19     7    21 1   
    20     7    33 1   
    21     7    34 1   
    22     8     9 1   
    23     8    35 1   
    24     8    36 1   
    25     9    16 1   
    26     9    37 1   
    27     9    38 1   
    28    10    11 ar  
    29    10    15 ar  
    30    10    19 1   
    31    11    12 ar  
    32    11    22 1   
    33    12    13 ar  
    34    12    39 1   
    35    13    14 ar  
    36    13    40 1   
    37    14    15 ar  
    38    14    41 1   
    39    15    26 1   
    40    16    19 1   
    41    16    21 1   
    42    17    42 1   
    43    17    43 1   
    44    17    44 1   
    45    19    25 2   
    46    20    22 1   
    47    20    23 2   
    48    20    45 1   
    49    21    46 1   
@<TRIPOS>SUBSTRUCTURE
     1 QMU         1 TEMP              0 ****  ****    0 ROOT
