@<TRIPOS>MOLECULE
QMU
   46    49     1     0     0
SMALL
No Charge or Current Charge


@<TRIPOS>ATOM
      1 C1           4.2950    -3.6530   236.1320 c3         1 QMU       0.203000
      2 C2           3.7600    -4.8030   237.0210 c3         1 QMU      -0.107100
      3 C3           4.4940    -2.3800   237.0070 c3         1 QMU      -0.107100
      4 C4           6.3460    -3.3490   234.7490 c          1 QMU       0.542600
      5 C5           7.6800    -3.9050   234.2600 cc         1 QMU       0.227500
      6 C6           8.2870    -5.1670   234.3610 cd         1 QMU      -0.142300
      7 C8           6.3960    -6.9410   234.9320 c5         1 QMU      -0.078400
      8 C9           6.1410    -7.5100   236.3610 c5         1 QMU      -0.089400
      9 C10          6.9490    -6.5510   237.2840 c5         1 QMU       0.103000
     10 C12         10.5690    -5.8310   236.0460 ca         1 QMU      -0.112600
     11 C13         10.6210    -5.5170   234.6400 ca         1 QMU       0.019800
     12 C15         11.8240    -5.7190   233.9300 ca         1 QMU      -0.114000
     13 C16         12.9730    -6.2030   234.5650 ca         1 QMU      -0.080000
     14 C17         12.9350    -6.5020   235.9300 ca         1 QMU      -0.092000
     15 C18         11.7530    -6.3250   236.6640 ca         1 QMU       0.034100
     16 N            8.1490    -6.3570   236.4660 n          1 QMU      -0.407800
     17 C            3.3060    -3.4390   234.9480 c3         1 QMU      -0.107100
     18 O            5.5870    -4.1080   235.6240 os         1 QMU      -0.471100
     19 C11          9.3160    -5.7160   236.9160 c          1 QMU       0.582600
     20 C14          9.7200    -3.6700   233.4890 cd         1 QMU       0.420400
     21 C7           7.8660    -6.4470   235.0510 c5         1 QMU       0.186000
     22 N1           9.5590    -4.9770   233.8870 na         1 QMU      -0.094300
     23 N2           8.5710    -3.0330   233.6410 nc         1 QMU      -0.630000
     24 O1           5.9910    -2.2240   234.4030 o          1 QMU      -0.467000
     25 O2           9.3220    -5.1300   237.9920 o          1 QMU      -0.531000
     26 Br          11.8090    -6.8780   238.5090 br         1 QMU      -0.065100
     27 H5           4.4010    -4.9630   237.8990 hc         1 QMU       0.051144
     28 H3           2.7540    -4.5680   237.3910 hc         1 QMU       0.051144
     29 H4           3.6910    -5.7380   236.4490 hc         1 QMU       0.051144
     30 H7           5.3400    -2.5090   237.6980 hc         1 QMU       0.051144
     31 H6           4.6750    -1.4830   236.3990 hc         1 QMU       0.051144
     32 H8           3.5960    -2.1840   237.6060 hc         1 QMU       0.051144
     33 H10          5.6790    -6.1800   234.6310 hc         1 QMU       0.066700
     34 H11          6.3090    -7.7240   234.1700 hc         1 QMU       0.066700
     35 H13          5.0790    -7.5640   236.6220 hc         1 QMU       0.055200
     36 H12          6.5350    -8.5310   236.4390 hc         1 QMU       0.055200
     37 H15          7.1780    -7.0130   238.2540 h1         1 QMU       0.066200
     38 H14          6.4450    -5.5960   237.4640 h1         1 QMU       0.066200
     39 H17         11.8740    -5.4950   232.8660 ha         1 QMU       0.134000
     40 H18         13.8910    -6.3490   233.9990 ha         1 QMU       0.129000
     41 H19         13.8240    -6.8930   236.4200 ha         1 QMU       0.140000
     42 H1           2.2780    -3.3540   235.3210 hc         1 QMU       0.051144
     43 H2           3.5160    -2.5190   234.3870 hc         1 QMU       0.051144
     44 H            3.3420    -4.2900   234.2530 hc         1 QMU       0.051144
     45 H16         10.6620    -3.2630   233.1370 h5         1 QMU       0.067100
     46 H9           8.5010    -7.2450   234.6400 h1         1 QMU       0.070700
@<TRIPOS>BOND
     1     1     2 1   
     2     1     3 1   
     3     1    17 1   
     4     1    18 1   
     5     2    27 1   
     6     2    28 1   
     7     2    29 1   
     8     3    30 1   
     9     3    31 1   
    10     3    32 1   
    11     4     5 1   
    12     4    18 1   
    13     4    24 2   
    14     5     6 2   
    15     5    23 1   
    16     6    21 1   
    17     6    22 1   
    18     7     8 1   
    19     7    21 1   
    20     7    33 1   
    21     7    34 1   
    22     8     9 1   
    23     8    35 1   
    24     8    36 1   
    25     9    16 1   
    26     9    37 1   
    27     9    38 1   
    28    10    11 ar  
    29    10    15 ar  
    30    10    19 1   
    31    11    12 ar  
    32    11    22 1   
    33    12    13 ar  
    34    12    39 1   
    35    13    14 ar  
    36    13    40 1   
    37    14    15 ar  
    38    14    41 1   
    39    15    26 1   
    40    16    19 1   
    41    16    21 1   
    42    17    42 1   
    43    17    43 1   
    44    17    44 1   
    45    19    25 2   
    46    20    22 1   
    47    20    23 2   
    48    20    45 1   
    49    21    46 1   
@<TRIPOS>SUBSTRUCTURE
     1 QMU         1 TEMP              0 ****  ****    0 ROOT
