@<TRIPOS>MOLECULE
QMV
   39    42     1     0     0
SMALL
No Charge or Current Charge


@<TRIPOS>ATOM
      1 C13         -4.0540    -0.1100    -1.0580 ca         1 QMV       0.188000
      2 C18          1.1730    -3.6030    -0.5740 cc         1 QMV       0.415400
      3 C16         -1.9260    -0.2700     0.1100 ca         1 QMV      -0.067000
      4 C15         -3.2010     0.3050    -0.0200 ca         1 QMV       0.064000
      5 C20          3.3330    -2.6390     0.2490 c3         1 QMV       0.060600
      6 C21          3.6540    -3.2950     1.6100 c3         1 QMV       0.146600
      7 C23          2.3790     0.1960     1.2430 cc         1 QMV      -0.159000
      8 C24          2.7440     1.4790     1.5800 cd         1 QMV      -0.018000
      9 C11         -2.3580    -1.6790    -1.8190 ca         1 QMV      -0.047000
     10 C12         -3.6380    -1.1100    -1.9480 ca         1 QMV      -0.149000
     11 C27          1.2040     4.3170     0.1250 cc         1 QMV       0.017600
     12 Cl1         -3.7170     1.5300     1.1390 cl         1 QMV      -0.173000
     13 N2          -1.4020     3.5110    -2.2740 n1         1 QMV      -0.422000
     14 C4           0.5090     3.3270    -0.5400 cd         1 QMV      -0.047800
     15 N5           1.0670     2.1790    -0.0400 na         1 QMV       0.266900
     16 N6           0.6850     0.9080    -0.4110 nd         1 QMV      -0.433800
     17 C7           1.3550    -0.0510     0.2430 cc         1 QMV       0.400500
     18 C8           1.0350    -1.4360    -0.0810 cc         1 QMV      -0.268500
     19 C9          -0.1330    -1.8820    -0.6830 cd         1 QMV       0.352500
     20 C10         -1.4630    -1.2330    -0.8190 ca         1 QMV      -0.115500
     21 F14         -5.2870     0.4310    -1.1920 f          1 QMV      -0.160000
     22 N17         -0.0300    -3.2270    -0.9680 nd         1 QMV      -0.666000
     23 N19          1.8830    -2.5510    -0.0330 na         1 QMV      -0.154500
     24 O22          5.0690    -3.2870     1.8370 oh         1 QMV      -0.656000
     25 C25          2.0320     2.4850     0.8810 cd         1 QMV      -0.112000
     26 N26          2.1400     3.7960     1.0010 nc         1 QMV      -0.263600
     27 H35          1.5990    -4.5940    -0.6790 h5         1 QMV       0.062100
     28 H34         -1.3100     0.0250     0.9540 ha         1 QMV       0.124000
     29 H31          3.8000    -1.6510     0.1730 h1         1 QMV       0.080700
     30 H30          3.7920    -3.2510    -0.5380 h1         1 QMV       0.080700
     31 H28          3.1370    -2.7530     2.4130 h1         1 QMV       0.029700
     32 H29          3.2730    -4.3260     1.6090 h1         1 QMV       0.029700
     33 H37          2.8250    -0.6240     1.7830 ha         1 QMV       0.139000
     34 H38          3.4950     1.7010     2.3320 ha         1 QMV       0.156000
     35 H32         -2.0520    -2.4530    -2.5210 ha         1 QMV       0.138000
     36 H33         -4.3080    -1.4440    -2.7370 ha         1 QMV       0.138000
     37 H39          1.0830     5.3920     0.0330 h4         1 QMV       0.244000
     38 H36          5.2260    -3.7280     2.7040 ho         1 QMV       0.457000
     39 C3          -0.5360     3.4130    -1.4960 ch         1 QMV       0.322700
@<TRIPOS>BOND
     1     1     4 ar  
     2     1    10 ar  
     3     1    21 1   
     4     2    22 2   
     5     2    23 1   
     6     2    27 1   
     7     3     4 ar  
     8     3    20 ar  
     9     3    28 1   
    10     4    12 1   
    11     5     6 1   
    12     5    23 1   
    13     5    29 1   
    14     5    30 1   
    15     6    24 1   
    16     6    31 1   
    17     6    32 1   
    18     7     8 2   
    19     7    17 1   
    20     7    33 1   
    21     8    25 1   
    22     8    34 1   
    23     9    10 ar  
    24     9    20 ar  
    25     9    35 1   
    26    10    36 1   
    27    11    14 2   
    28    11    26 1   
    29    11    37 1   
    30    13    39 3   
    31    14    15 1   
    32    14    39 1   
    33    15    16 1   
    34    15    25 1   
    35    16    17 2   
    36    17    18 1   
    37    18    19 2   
    38    18    23 1   
    39    19    20 1   
    40    19    22 1   
    41    24    38 1   
    42    25    26 2   
@<TRIPOS>SUBSTRUCTURE
     1 QMV         1 TEMP              0 ****  ****    0 ROOT
