@<TRIPOS>MOLECULE
QMV
   39    42     1     0     0
SMALL
abcg2


@<TRIPOS>ATOM
      1 C13         -4.0360    -0.1570    -0.8200 ca         1 QMV       0.188000
      2 C18          1.2280    -3.5330    -0.7340 cc         1 QMV       0.415400
      3 C16         -1.9230    -0.3690     0.2900 ca         1 QMV      -0.067000
      4 C15         -3.1690     0.2240     0.1910 ca         1 QMV       0.064000
      5 C20          3.3200    -2.4490     0.0470 c3         1 QMV       0.060600
      6 C21          3.6370    -3.1500     1.3600 c3         1 QMV       0.146600
      7 C23          1.9780     0.1490     1.5560 cc         1 QMV      -0.159000
      8 C24          2.2380     1.4290     1.9380 cd         1 QMV      -0.018000
      9 C11         -2.4220    -1.7140    -1.6330 ca         1 QMV      -0.047000
     10 C12         -3.6730    -1.1290    -1.7300 ca         1 QMV      -0.149000
     11 C27          1.3440     4.2580     0.0530 cc         1 QMV       0.017600
     12 CL1         -3.6650     1.4230     1.3250 cl         1 QMV      -0.173000
     13 N2          -0.3210     3.2620    -3.0100 n1         1 QMV      -0.422000
     14 C4           0.8840     3.2350    -0.7560 cd         1 QMV      -0.047800
     15 N5           1.2030     2.0830    -0.0870 na         1 QMV       0.266900
     16 N6           0.9620     0.8550    -0.5010 nd         1 QMV      -0.433800
     17 C7           1.3320    -0.0990     0.3110 cc         1 QMV       0.400500
     18 C8           0.9880    -1.4520    -0.1230 cc         1 QMV      -0.268500
     19 C9          -0.2110    -1.9740    -0.5560 cd         1 QMV       0.352500
     20 C10         -1.5270    -1.3360    -0.6320 ca         1 QMV      -0.115500
     21 F14         -5.2360     0.4200    -0.9010 f          1 QMV      -0.160000
     22 N17         -0.0360    -3.2710    -0.9340 nd         1 QMV      -0.666000
     23 N19          1.8980    -2.4740    -0.2390 na         1 QMV      -0.154500
     24 O22          5.0220    -3.0340     1.5590 oh         1 QMV      -0.656000
     25 C25          1.8290     2.4600     1.0770 cd         1 QMV      -0.112000
     26 N26          1.9170     3.7790     1.1650 nc         1 QMV      -0.263600
     27 H35          1.7180    -4.4740    -0.9400 h5         1 QMV       0.062100
     28 H34         -1.2780    -0.0840     1.1100 ha         1 QMV       0.124000
     29 H31          3.6540    -1.4120     0.0760 h1         1 QMV       0.080700
     30 H30          3.8450    -2.9330    -0.7760 h1         1 QMV       0.080700
     31 H28          3.0620    -2.6890     2.1730 h1         1 QMV       0.029700
     32 H29          3.3150    -4.1970     1.2970 h1         1 QMV       0.029700
     33 H37          2.2330    -0.6780     2.2030 ha         1 QMV       0.139000
     34 H38          2.7210     1.6690     2.8740 ha         1 QMV       0.156000
     35 H32         -2.1360    -2.4700    -2.3510 ha         1 QMV       0.138000
     36 H33         -4.3640    -1.4210    -2.5100 ha         1 QMV       0.138000
     37 H39          1.2680     5.3160    -0.1500 h4         1 QMV       0.244000
     38 H36          5.2540    -3.5050     2.3640 ho         1 QMV       0.457000
     39 C3           0.2230     3.2400    -1.9940 ch         1 QMV       0.322700
@<TRIPOS>BOND
     1     1     4 ar  
     2     1    10 ar  
     3     1    21 1   
     4     2    22 2   
     5     2    23 1   
     6     2    27 1   
     7     3     4 ar  
     8     3    20 ar  
     9     3    28 1   
    10     4    12 1   
    11     5     6 1   
    12     5    23 1   
    13     5    29 1   
    14     5    30 1   
    15     6    24 1   
    16     6    31 1   
    17     6    32 1   
    18     7     8 2   
    19     7    17 1   
    20     7    33 1   
    21     8    25 1   
    22     8    34 1   
    23     9    10 ar  
    24     9    20 ar  
    25     9    35 1   
    26    10    36 1   
    27    11    14 2   
    28    11    26 1   
    29    11    37 1   
    30    13    39 3   
    31    14    15 1   
    32    14    39 1   
    33    15    16 1   
    34    15    25 1   
    35    16    17 2   
    36    17    18 1   
    37    18    19 2   
    38    18    23 1   
    39    19    20 1   
    40    19    22 1   
    41    24    38 1   
    42    25    26 2   
@<TRIPOS>SUBSTRUCTURE
     1 QMV         1 TEMP              0 ****  ****    0 ROOT
