@<TRIPOS>MOLECULE
QMW
   39    41     1     0     0
SMALL
bcc


@<TRIPOS>ATOM
      1 C1          19.8000    -0.5490    14.5400 cp         1 QMW       0.398800
      2 C2          20.1360     0.7060    13.8340 cp         1 QMW      -0.175500
      3 N3          17.9390    -3.7160    14.0740 nh         1 QMW      -0.649000
      4 C4          20.9950     1.7880    11.8360 ca         1 QMW      -0.172000
      5 C5          20.8060     3.0270    12.4310 ca         1 QMW      -0.077000
      6 C6          20.2810     3.1160    13.7110 ca         1 QMW      -0.232000
      7 C7          19.9420     1.9640    14.4180 ca         1 QMW       0.174100
      8 C9          18.7110    -2.6820    14.5830 ca         1 QMW       0.018300
      9 C10         17.7350    -3.7370    12.6350 c6         1 QMW       0.190800
     10 C12         15.9780    -5.4950    12.9180 c6         1 QMW       0.148100
     11 C13         16.2020    -5.4050    14.4220 c6         1 QMW      -0.097900
     12 C14         16.7070    -4.0240    14.8040 c6         1 QMW       0.190800
     13 C           19.3450    -2.8250    15.8520 ca         1 QMW       0.579200
     14 O           19.4020     2.0200    15.6490 oh         1 QMW      -0.472100
     15 C11         17.2550    -5.1100    12.1910 c6         1 QMW      -0.097900
     16 C3          20.6550     0.6440    12.5420 ca         1 QMW      -0.081000
     17 C8          18.9810    -1.5080    13.9240 ca         1 QMW      -0.234300
     18 N1          20.0900    -1.8690    16.3770 nb         1 QMW      -0.392000
     19 N2          20.3100    -0.7360    15.7380 nb         1 QMW      -0.272000
     20 O1          15.6050    -6.7900    12.5010 oh         1 QMW      -0.592800
     21 H1          21.4060     1.7100    10.8390 ha         1 QMW       0.135000
     22 H2          21.0630     3.9350    11.9000 ha         1 QMW       0.131000
     23 H3          20.1240     4.0890    14.1620 ha         1 QMW       0.132000
     24 H4          18.6790    -3.5040    12.1410 h1         1 QMW       0.045700
     25 H5          17.0090    -2.9720    12.3210 h1         1 QMW       0.045700
     26 H6          15.1990    -4.7640    12.6480 h1         1 QMW       0.026700
     27 H7          15.2730    -5.6090    14.9610 hc         1 QMW       0.058700
     28 H8          16.9330    -6.1590    14.7300 hc         1 QMW       0.058700
     29 H9          16.8870    -3.9750    15.8760 h1         1 QMW       0.045700
     30 H10         15.9410    -3.2670    14.5770 h1         1 QMW       0.045700
     31 H11         19.8470    -4.0810    17.3370 hn         1 QMW       0.413800
     32 H12         19.0520    -4.8120    16.0450 hn         1 QMW       0.413800
     33 H13         19.2920     2.9390    15.9210 ho         1 QMW       0.423000
     34 H14         17.0900    -5.0930    11.1110 hc         1 QMW       0.058700
     35 H15         18.0340    -5.8510    12.3960 hc         1 QMW       0.058700
     36 H16         20.8110    -0.3280    12.0890 ha         1 QMW       0.131000
     37 H17         18.5570    -1.2980    12.9510 ha         1 QMW       0.146000
     38 H18         14.7820    -7.0230    12.9430 ho         1 QMW       0.404000
     39 N           19.1890    -3.9690    16.5810 nv         1 QMW      -0.928500
@<TRIPOS>BOND
     1     1     2 1   
     2     1    17 ar  
     3     1    19 ar  
     4     2     7 ar  
     5     2    16 ar  
     6     3     8 1   
     7     3     9 1   
     8     3    12 1   
     9     4     5 ar  
    10     4    16 ar  
    11     4    21 1   
    12     5     6 ar  
    13     5    22 1   
    14     6     7 ar  
    15     6    23 1   
    16     7    14 1   
    17     8    13 ar  
    18     8    17 ar  
    19     9    15 1   
    20     9    24 1   
    21     9    25 1   
    22    10    11 1   
    23    10    15 1   
    24    10    20 1   
    25    10    26 1   
    26    11    12 1   
    27    11    27 1   
    28    11    28 1   
    29    12    29 1   
    30    12    30 1   
    31    13    18 ar  
    32    13    39 1   
    33    14    33 1   
    34    15    34 1   
    35    15    35 1   
    36    16    36 1   
    37    17    37 1   
    38    18    19 ar  
    39    20    38 1   
    40    31    39 1   
    41    32    39 1   
@<TRIPOS>SUBSTRUCTURE
     1 QMW         1 TEMP              0 ****  ****    0 ROOT
