@<TRIPOS>MOLECULE
QMW
   39    41     1     0     0
SMALL
No Charge or Current Charge


@<TRIPOS>ATOM
      1 C1          19.8050    -0.5070    14.5370 cp         1 QMW       0.333500
      2 C2          20.1300     0.7840    13.8450 cp         1 QMW      -0.175500
      3 N3          17.8270    -3.6580    14.0360 nh         1 QMW      -0.787400
      4 C4          20.7410     1.9540    11.7700 ca         1 QMW      -0.154000
      5 C5          20.7590     3.1790    12.4500 ca         1 QMW      -0.059000
      6 C6          20.4570     3.2190    13.8210 ca         1 QMW      -0.214000
      7 C7          20.1430     2.0380    14.5160 ca         1 QMW       0.174100
      8 C9          18.6930    -2.6750    14.6150 ca         1 QMW       0.222000
      9 C10         17.8360    -3.8990    12.5660 c6         1 QMW       0.190800
     10 C12         16.0120    -5.6490    12.8680 c6         1 QMW       0.171300
     11 C13         16.0490    -5.3780    14.3890 c6         1 QMW      -0.097900
     12 C14         16.5120    -3.9320    14.6780 c6         1 QMW       0.190800
     13 C           19.3470    -2.8500    15.8810 ca         1 QMW       0.513900
     14 O           19.8170     2.1420    15.8360 oh         1 QMW      -0.511100
     15 C11         17.3930    -5.3450    12.2460 c6         1 QMW      -0.097900
     16 C3          20.4280     0.7710    12.4580 ca         1 QMW      -0.063000
     17 C8          18.9480    -1.4640    13.9420 ca         1 QMW      -0.151000
     18 N1          20.1680    -1.9170    16.4020 nb         1 QMW      -0.392000
     19 N2          20.3900    -0.7650    15.7350 nb         1 QMW      -0.272000
     20 O1          15.6510    -7.0110    12.6150 oh         1 QMW      -0.655000
     21 H1          20.9730     1.9200    10.7070 ha         1 QMW       0.117000
     22 H2          21.0010     4.0960    11.9170 ha         1 QMW       0.113000
     23 H3          20.4630     4.1760    14.3360 ha         1 QMW       0.114000
     24 H4          18.8460    -3.7420    12.1590 h1         1 QMW       0.045700
     25 H5          17.1610    -3.1910    12.0620 h1         1 QMW       0.045700
     26 H6          15.2700    -4.9770    12.4100 h1         1 QMW       0.026700
     27 H7          15.0550    -5.5380    14.8280 hc         1 QMW       0.058700
     28 H8          16.7300    -6.0840    14.8810 hc         1 QMW       0.058700
     29 H9          16.5720    -3.7880    15.7670 h1         1 QMW       0.045700
     30 H10         15.7570    -3.2260    14.3000 h1         1 QMW       0.045700
     31 H11         19.9660    -4.1240    17.3490 hn         1 QMW       0.469000
     32 H12         18.8650    -4.7970    16.1960 hn         1 QMW       0.469000
     33 H13         19.8880     3.0840    16.0960 ho         1 QMW       0.462000
     34 H14         17.3560    -5.4860    11.1580 hc         1 QMW       0.058700
     35 H15         18.1420    -6.0500    12.6310 hc         1 QMW       0.058700
     36 H16         20.4300    -0.1700    11.9110 ha         1 QMW       0.113000
     37 H17         18.4810    -1.2520    12.9870 ha         1 QMW       0.128000
     38 H18         14.7360    -7.1270    12.9530 ho         1 QMW       0.443000
     39 N           19.2430    -3.9740    16.6540 nv         1 QMW      -1.038900
@<TRIPOS>BOND
     1     1     2 1   
     2     1    17 ar  
     3     1    19 ar  
     4     2     7 ar  
     5     2    16 ar  
     6     3     8 1   
     7     3     9 1   
     8     3    12 1   
     9     4     5 ar  
    10     4    16 ar  
    11     4    21 1   
    12     5     6 ar  
    13     5    22 1   
    14     6     7 ar  
    15     6    23 1   
    16     7    14 1   
    17     8    13 ar  
    18     8    17 ar  
    19     9    15 1   
    20     9    24 1   
    21     9    25 1   
    22    10    11 1   
    23    10    15 1   
    24    10    20 1   
    25    10    26 1   
    26    11    12 1   
    27    11    27 1   
    28    11    28 1   
    29    12    29 1   
    30    12    30 1   
    31    13    18 ar  
    32    13    39 1   
    33    14    33 1   
    34    15    34 1   
    35    15    35 1   
    36    16    36 1   
    37    17    37 1   
    38    18    19 ar  
    39    20    38 1   
    40    31    39 1   
    41    32    39 1   
@<TRIPOS>SUBSTRUCTURE
     1 QMW         1 TEMP              0 ****  ****    0 ROOT
