@<TRIPOS>MOLECULE
QMX
   57    61     1     0     0
SMALL
No Charge or Current Charge


@<TRIPOS>ATOM
      1 N1         -22.9220     3.9560    26.2630 n7         1 QMX      -0.882400
      2 N3         -16.2800     5.3940    26.7360 nb         1 QMX      -0.653000
      3 C4         -24.2150     3.6610    25.5860 c3         1 QMX       0.150500
      4 C5         -22.8290     3.5780    27.6920 c3         1 QMX       0.163800
      5 C6         -21.9580     4.5680    28.5330 c6         1 QMX      -0.056700
      6 C7         -22.5450     6.0270    28.4420 c6         1 QMX      -0.103400
      7 C8         -23.8380     6.1630    29.2530 c6         1 QMX       0.161600
      8 C10        -22.8350     4.4140    32.3270 ca         1 QMX      -0.138000
      9 C13        -21.3670     2.9240    30.4620 ca         1 QMX      -0.066000
     10 C15        -20.4940     4.4840    27.9530 c          1 QMX       0.613100
     11 C17        -17.5230     5.1310    27.1990 ca         1 QMX       0.310900
     12 C20        -16.8840     8.6110    25.0140 ca         1 QMX      -0.086000
     13 C21        -17.9270     9.5150    24.7520 ca         1 QMX      -0.107000
     14 C22        -19.2210     9.2500    25.2280 ca         1 QMX      -0.094000
     15 C24        -18.4340     7.1680    26.2410 ca         1 QMX      -0.002000
     16 O1         -19.8900     3.4210    27.8570 o          1 QMX      -0.568100
     17 N2         -19.9320     5.6760    27.5020 ns         1 QMX      -0.175000
     18 C16        -18.6390     5.9770    26.9790 ca         1 QMX      -0.078000
     19 C23        -19.4780     8.0830    25.9690 ca         1 QMX      -0.087000
     20 C19        -17.1360     7.4410    25.7560 ca         1 QMX      -0.092000
     21 C18        -16.0990     6.5280    26.0240 ca         1 QMX       0.358900
     22 C14        -22.0230     4.1030    30.0260 ca         1 QMX      -0.148300
     23 C12        -21.4210     2.5190    31.8060 ca         1 QMX       0.088000
     24 Cl         -20.5810     1.0590    32.3140 cl         1 QMX      -0.213000
     25 C11        -22.1420     3.2690    32.7440 ca         1 QMX      -0.062000
     26 C9         -22.7990     4.8190    30.9830 ca         1 QMX       0.160100
     27 O          -23.5490     5.9220    30.6380 os         1 QMX      -0.349100
     28 C3         -25.3900     4.4350    26.1720 cc         1 QMX       0.239300
     29 C2         -26.3350     3.8460    27.0270 cc         1 QMX      -0.232000
     30 C1         -27.2220     4.8170    27.3760 cd         1 QMX      -0.165000
     31 N4         -25.6240     5.7170    25.9510 nd         1 QMX      -0.503800
     32 N          -26.7650     5.9560    26.7060 na         1 QMX       0.116800
     33 C          -27.3700     7.2950    26.7500 c3         1 QMX       0.075900
     34 H1         -22.1640     3.4870    25.7500 hn         1 QMX       0.422000
     35 H3         -24.4370     2.5860    25.6410 h1         1 QMX       0.044700
     36 H4         -24.1420     3.9160    24.5200 h1         1 QMX       0.044700
     37 H5         -23.8260     3.5530    28.1500 h1         1 QMX       0.040200
     38 H6         -22.4280     2.5600    27.7870 h1         1 QMX       0.040200
     39 H7         -21.8380     6.7590    28.8560 hc         1 QMX       0.089200
     40 H8         -22.7300     6.3260    27.4010 hc         1 QMX       0.089200
     41 H9         -24.2560     7.1740    29.1470 h1         1 QMX       0.057700
     42 H10        -24.5960     5.4450    28.9100 h1         1 QMX       0.057700
     43 H11        -23.4200     4.9850    33.0450 ha         1 QMX       0.133000
     44 H12        -20.8170     2.2960    29.7710 ha         1 QMX       0.120000
     45 H14        -15.8830     8.8210    24.6410 ha         1 QMX       0.117000
     46 H15        -17.7320    10.4190    24.1790 ha         1 QMX       0.116000
     47 H16        -20.0280     9.9500    25.0220 ha         1 QMX       0.117000
     48 H17        -20.5450     6.4770    27.5680 hn         1 QMX       0.153000
     49 H18        -20.4910     7.9030    26.3180 ha         1 QMX       0.130000
     50 H19        -15.0870     6.7120    25.6630 h4         1 QMX       0.021100
     51 H20        -22.1790     2.9530    33.7840 ha         1 QMX       0.133000
     52 H21        -26.3350     2.8080    27.3440 ha         1 QMX       0.145000
     53 H22        -28.0980     4.8020    28.0150 h4         1 QMX       0.155000
     54 H23        -27.6480     7.6050    25.7360 h1         1 QMX       0.057367
     55 H24        -28.2660     7.2770    27.3820 h1         1 QMX       0.057367
     56 H25        -26.6480     8.0090    27.1650 h1         1 QMX       0.057367
     57 H13        -17.6050     4.2210    27.7890 h4         1 QMX       0.022100
@<TRIPOS>BOND
     1     1     3 1   
     2     1     4 1   
     3     1    34 1   
     4     2    11 ar  
     5     2    21 ar  
     6     3    28 1   
     7     3    35 1   
     8     3    36 1   
     9     4     5 1   
    10     4    37 1   
    11     4    38 1   
    12     5     6 1   
    13     5    10 1   
    14     5    22 1   
    15     6     7 1   
    16     6    39 1   
    17     6    40 1   
    18     7    27 1   
    19     7    41 1   
    20     7    42 1   
    21     8    25 ar  
    22     8    26 ar  
    23     8    43 1   
    24     9    22 ar  
    25     9    23 ar  
    26     9    44 1   
    27    10    16 2   
    28    10    17 1   
    29    11    18 ar  
    30    11    57 1   
    31    12    13 ar  
    32    12    20 ar  
    33    12    45 1   
    34    13    14 ar  
    35    13    46 1   
    36    14    19 ar  
    37    14    47 1   
    38    15    18 ar  
    39    15    19 ar  
    40    15    20 ar  
    41    17    18 1   
    42    17    48 1   
    43    19    49 1   
    44    20    21 ar  
    45    21    50 1   
    46    22    26 ar  
    47    23    24 1   
    48    23    25 ar  
    49    25    51 1   
    50    26    27 1   
    51    28    29 1   
    52    28    31 2   
    53    29    30 2   
    54    29    52 1   
    55    30    32 1   
    56    30    53 1   
    57    31    32 1   
    58    32    33 1   
    59    33    54 1   
    60    33    55 1   
    61    33    56 1   
@<TRIPOS>SUBSTRUCTURE
     1 QMX         1 TEMP              0 ****  ****    0 ROOT
