@<TRIPOS>MOLECULE
QMX
   57    61     1     0     0
SMALL
abcg2


@<TRIPOS>ATOM
      1 N1         -22.8980     5.0320    26.2060 n7         1 QMX      -0.882400
      2 N3         -16.3350     4.8920    27.0410 nb         1 QMX      -0.653000
      3 C4         -24.0590     4.5950    25.4210 c3         1 QMX       0.150500
      4 C5         -22.7060     4.2970    27.4500 c3         1 QMX       0.163800
      5 C6         -22.1300     5.1770    28.5880 c6         1 QMX      -0.056700
      6 C7         -23.0710     6.3650    28.8570 c6         1 QMX      -0.103400
      7 C8         -24.2990     5.9270    29.6160 c6         1 QMX       0.161600
      8 C10        -22.7780     3.7480    32.0890 ca         1 QMX      -0.138000
      9 C13        -20.9970     3.3860    30.0020 ca         1 QMX      -0.066000
     10 C15        -20.7320     5.7450    28.2560 c          1 QMX       0.613100
     11 C17        -17.6300     4.6340    27.3540 ca         1 QMX       0.310900
     12 C20        -16.7480     8.0320    25.1380 ca         1 QMX      -0.086000
     13 C21        -17.7430     8.8640    24.6970 ca         1 QMX      -0.107000
     14 C22        -19.0950     8.5730    24.9900 ca         1 QMX      -0.094000
     15 C24        -18.4280     6.5980    26.2050 ca         1 QMX      -0.002000
     16 O1         -20.2950     6.7440    28.8120 o          1 QMX      -0.568100
     17 N2         -20.0030     5.0680    27.3310 ns         1 QMX      -0.175000
     18 C16        -18.6770     5.4330    26.9750 ca         1 QMX      -0.078000
     19 C23        -19.4360     7.4670    25.7270 ca         1 QMX      -0.087000
     20 C19        -17.0690     6.8800    25.8950 ca         1 QMX      -0.092000
     21 C18        -16.0770     5.9780    26.3490 ca         1 QMX       0.358900
     22 C14        -22.0100     4.3380    29.8600 ca         1 QMX      -0.148300
     23 C12        -20.8820     2.6390    31.1600 ca         1 QMX       0.088000
     24 CL         -19.5940     1.4540    31.2940 cl         1 QMX      -0.213000
     25 C11        -21.7640     2.8150    32.2180 ca         1 QMX      -0.062000
     26 C9         -22.9150     4.5010    30.9200 ca         1 QMX       0.160100
     27 O          -23.9460     5.3860    30.9030 os         1 QMX      -0.349100
     28 C3         -25.3480     4.9080    26.1180 cc         1 QMX       0.239300
     29 C2         -26.2790     4.0020    26.6640 cc         1 QMX      -0.232000
     30 C1         -27.2560     4.7950    27.2370 cd         1 QMX      -0.165000
     31 N4         -25.7330     6.1680    26.3400 nd         1 QMX      -0.503800
     32 N          -26.8910     6.0770    27.0220 na         1 QMX       0.116800
     33 C          -27.5750     7.2780    27.4610 c3         1 QMX       0.075900
     34 H1         -22.0680     4.9930    25.6290 hn         1 QMX       0.422000
     35 H3         -24.0410     3.5180    25.2060 h1         1 QMX       0.044700
     36 H4         -24.0170     5.1180    24.4640 h1         1 QMX       0.044700
     37 H5         -23.6760     3.9370    27.7900 h1         1 QMX       0.040200
     38 H6         -22.0960     3.3920    27.3250 h1         1 QMX       0.040200
     39 H7         -22.5420     7.1190    29.4370 hc         1 QMX       0.089200
     40 H8         -23.3680     6.8050    27.9070 hc         1 QMX       0.089200
     41 H9         -24.9540     6.7700    29.8270 h1         1 QMX       0.057700
     42 H10        -24.8730     5.1730    29.0730 h1         1 QMX       0.057700
     43 H11        -23.4880     3.9030    32.8910 ha         1 QMX       0.133000
     44 H12        -20.2810     3.2340    29.2080 ha         1 QMX       0.120000
     45 H14        -15.7090     8.2380    24.9140 ha         1 QMX       0.117000
     46 H15        -17.5010     9.7450    24.1170 ha         1 QMX       0.116000
     47 H16        -19.8710     9.2340    24.6240 ha         1 QMX       0.117000
     48 H17        -20.3420     4.1860    26.9820 hn         1 QMX       0.153000
     49 H18        -20.4730     7.2510    25.9430 ha         1 QMX       0.130000
     50 H19        -15.0360     6.1830    26.1130 h4         1 QMX       0.021100
     51 H20        -21.6650     2.2310    33.1230 ha         1 QMX       0.133000
     52 H21        -26.2360     2.9260    26.6470 ha         1 QMX       0.145000
     53 H22        -28.1570     4.5500    27.7740 h4         1 QMX       0.155000
     54 H23        -27.7940     7.9150    26.6040 h1         1 QMX       0.057367
     55 H24        -28.5050     6.9890    27.9440 h1         1 QMX       0.057367
     56 H25        -26.9520     7.8240    28.1680 h1         1 QMX       0.057367
     57 H13        -17.8200     3.7410    27.9380 h4         1 QMX       0.022100
@<TRIPOS>BOND
     1     1     3 1   
     2     1     4 1   
     3     1    34 1   
     4     2    11 ar  
     5     2    21 ar  
     6     3    28 1   
     7     3    35 1   
     8     3    36 1   
     9     4     5 1   
    10     4    37 1   
    11     4    38 1   
    12     5     6 1   
    13     5    10 1   
    14     5    22 1   
    15     6     7 1   
    16     6    39 1   
    17     6    40 1   
    18     7    27 1   
    19     7    41 1   
    20     7    42 1   
    21     8    25 ar  
    22     8    26 ar  
    23     8    43 1   
    24     9    22 ar  
    25     9    23 ar  
    26     9    44 1   
    27    10    16 2   
    28    10    17 1   
    29    11    18 ar  
    30    11    57 1   
    31    12    13 ar  
    32    12    20 ar  
    33    12    45 1   
    34    13    14 ar  
    35    13    46 1   
    36    14    19 ar  
    37    14    47 1   
    38    15    18 ar  
    39    15    19 ar  
    40    15    20 ar  
    41    17    18 1   
    42    17    48 1   
    43    19    49 1   
    44    20    21 ar  
    45    21    50 1   
    46    22    26 ar  
    47    23    24 1   
    48    23    25 ar  
    49    25    51 1   
    50    26    27 1   
    51    28    29 1   
    52    28    31 2   
    53    29    30 2   
    54    29    52 1   
    55    30    32 1   
    56    30    53 1   
    57    31    32 1   
    58    32    33 1   
    59    33    54 1   
    60    33    55 1   
    61    33    56 1   
@<TRIPOS>SUBSTRUCTURE
     1 QMX         1 TEMP              0 ****  ****    0 ROOT
