@<TRIPOS>MOLECULE
QMY
   40    43     1     0     0
SMALL
bcc


@<TRIPOS>ATOM
      1 C13          2.7320    -1.4070    -0.9540 c3         1 QMY      -0.023700
      2 C18          0.2690     0.8550     1.2350 cc         1 QMY      -0.077000
      3 C17          0.4140     0.4050    -0.1090 cc         1 QMY      -0.025000
      4 C19          0.3800     2.1730     1.5440 cd         1 QMY      -0.100000
      5 C20          0.6460     3.1040     0.5170 cd         1 QMY      -0.023300
      6 C22          0.6700     1.3080    -1.0910 cd         1 QMY      -0.066300
      7 C24          1.0320     4.7870    -0.7270 cc         1 QMY       0.020600
      8 C11         -3.1250    -2.5910     0.0380 ca         1 QMY      -0.218300
      9 C12         -3.9400     1.4780     0.8680 c3         1 QMY      -0.145400
     10 C1           0.2890    -1.0190    -0.4360 cc         1 QMY      -0.108600
     11 N2           1.3420    -1.7870    -0.8740 na         1 QMY      -0.194900
     12 C3           0.8690    -3.0400    -1.0720 cc         1 QMY       0.397400
     13 N4          -0.4020    -3.1270    -0.8040 nd         1 QMY      -0.659000
     14 C5          -0.7860    -1.8780    -0.4060 cd         1 QMY       0.271300
     15 C6          -2.1680    -1.5810    -0.0330 ca         1 QMY       0.398300
     16 N7          -2.4540    -0.3090     0.2380 nb         1 QMY      -0.687000
     17 C8          -3.6850     0.0260     0.6010 ca         1 QMY       0.425600
     18 C9          -4.7030    -0.9210     0.7080 ca         1 QMY      -0.246300
     19 C10         -4.4120    -2.2450     0.4170 ca         1 QMY      -0.096000
     20 C14          3.4490    -1.7070     0.3460 c3         1 QMY       0.403900
     21 F15          4.7290    -1.2620     0.2530 f          1 QMY      -0.232800
     22 F16          2.8630    -1.0340     1.3720 f          1 QMY      -0.232800
     23 N21          0.7840     2.6300    -0.7750 na         1 QMY       0.028700
     24 N23          0.7960     4.4140     0.5560 nc         1 QMY      -0.293600
     25 C25          1.0320     3.7140    -1.5760 cd         1 QMY      -0.242100
     26 H34          3.2040    -1.9680    -1.7610 h1         1 QMY       0.088700
     27 H33          2.8170    -0.3470    -1.1910 h1         1 QMY       0.088700
     28 H37          0.2730     2.5320     2.5580 ha         1 QMY       0.162000
     29 H38          0.7780     1.0500    -2.1350 h4         1 QMY       0.161000
     30 H39          1.1930     5.8200    -0.9960 h4         1 QMY       0.175000
     31 H29         -2.8620    -3.6140    -0.1880 ha         1 QMY       0.160000
     32 H32         -4.2300     1.9910    -0.0520 hc         1 QMY       0.051367
     33 H30         -4.7450     1.6230     1.5880 hc         1 QMY       0.051367
     34 H31         -3.0390     1.9620     1.2420 hc         1 QMY       0.051367
     35 H26          1.5020    -3.8430    -1.4210 h5         1 QMY       0.058100
     36 H27         -5.6980    -0.6230     1.0110 ha         1 QMY       0.140000
     37 H28         -5.1800    -3.0030     0.4900 ha         1 QMY       0.136000
     38 H35          3.4620    -2.7690     0.5950 h2         1 QMY       0.068700
     39 H40          1.1780     3.6250    -2.6390 h4         1 QMY       0.179000
     40 H36          0.0640     0.1290     2.0090 ha         1 QMY       0.152000
@<TRIPOS>BOND
     1     1    11 1   
     2     1    20 1   
     3     1    26 1   
     4     1    27 1   
     5     2     3 1   
     6     2     4 2   
     7     2    40 1   
     8     3     6 2   
     9     3    10 1   
    10     4     5 1   
    11     4    28 1   
    12     5    23 1   
    13     5    24 2   
    14     6    23 1   
    15     6    29 1   
    16     7    24 1   
    17     7    25 2   
    18     7    30 1   
    19     8    15 ar  
    20     8    19 ar  
    21     8    31 1   
    22     9    17 1   
    23     9    32 1   
    24     9    33 1   
    25     9    34 1   
    26    10    11 1   
    27    10    14 2   
    28    11    12 1   
    29    12    13 2   
    30    12    35 1   
    31    13    14 1   
    32    14    15 1   
    33    15    16 ar  
    34    16    17 ar  
    35    17    18 ar  
    36    18    19 ar  
    37    18    36 1   
    38    19    37 1   
    39    20    21 1   
    40    20    22 1   
    41    20    38 1   
    42    23    25 1   
    43    25    39 1   
@<TRIPOS>SUBSTRUCTURE
     1 QMY         1 TEMP              0 ****  ****    0 ROOT
