@<TRIPOS>MOLECULE
QMY
   40    43     1     0     0
SMALL
No Charge or Current Charge


@<TRIPOS>ATOM
      1 C13          2.6450    -1.4180    -1.4700 c3         1 QMY       0.005600
      2 C18         -0.2390     0.8890     1.1320 cc         1 QMY      -0.059000
      3 C17          0.3940     0.4380    -0.0980 cc         1 QMY      -0.025000
      4 C19         -0.1360     2.1940     1.5670 cd         1 QMY      -0.082000
      5 C20          0.6350     3.0550     0.7410 cd         1 QMY      -0.074000
      6 C22          1.1470     1.3140    -0.8870 cd         1 QMY      -0.099000
      7 C24          1.6700     4.6990    -0.1760 cc         1 QMY      -0.029400
      8 C11         -2.9630    -2.5750     0.8100 ca         1 QMY      -0.135000
      9 C12         -4.5050     1.3480     0.1810 c3         1 QMY      -0.145400
     10 C1           0.2580    -0.9540    -0.5120 cc         1 QMY      -0.094000
     11 N2           1.2250    -1.7260    -1.1630 na         1 QMY      -0.173500
     12 C3           0.7140    -3.0050    -1.2470 cc         1 QMY       0.397400
     13 N4          -0.4840    -3.0920    -0.6980 nd         1 QMY      -0.659000
     14 C5          -0.8020    -1.8190    -0.2480 cd         1 QMY       0.206000
     15 C6          -2.1770    -1.5270     0.2760 ca         1 QMY       0.333000
     16 N7          -2.7160    -0.2970     0.0500 nb         1 QMY      -0.687000
     17 C8          -3.9890    -0.0560     0.4310 ca         1 QMY       0.360300
     18 C9          -4.8050    -1.0390     1.0140 ca         1 QMY      -0.163000
     19 C10         -4.2880    -2.3290     1.2020 ca         1 QMY      -0.078000
     20 C14          3.5700    -1.4040    -0.2320 c3         1 QMY       0.161300
     21 F15          4.8570    -1.2880    -0.6290 f          1 QMY      -0.111500
     22 F16          3.3010    -0.3430     0.5620 f          1 QMY      -0.111500
     23 N21          1.2420     2.6150    -0.3970 na         1 QMY       0.130100
     24 N23          0.8910     4.3390     0.9080 nc         1 QMY      -0.293600
     25 C25          1.9040     3.6340    -1.0260 cd         1 QMY      -0.292100
     26 H34          3.0140    -2.2020    -2.1440 h1         1 QMY       0.088700
     27 H33          2.7460    -0.4850    -2.0280 h1         1 QMY       0.088700
     28 H37         -0.6070     2.5350     2.4830 ha         1 QMY       0.144000
     29 H38          1.5950     1.1130    -1.8460 h4         1 QMY       0.143000
     30 H39          2.0160     5.7260    -0.2780 h4         1 QMY       0.225000
     31 H29         -2.5390    -3.5670     0.9320 ha         1 QMY       0.142000
     32 H32         -4.8490     1.4550    -0.8540 hc         1 QMY       0.051367
     33 H30         -5.3460     1.5860     0.8410 hc         1 QMY       0.051367
     34 H31         -3.7240     2.0970     0.3570 hc         1 QMY       0.051367
     35 H26          1.2770    -3.8240    -1.6780 h5         1 QMY       0.058100
     36 H27         -5.8270    -0.8070     1.3010 ha         1 QMY       0.122000
     37 H28         -4.9000    -3.1200     1.6330 ha         1 QMY       0.118000
     38 H35          3.4550    -2.3270     0.3460 h2         1 QMY       0.068700
     39 H40          2.4540     3.5390    -1.9560 h4         1 QMY       0.229000
     40 H36         -0.7750     0.1770     1.7470 ha         1 QMY       0.134000
@<TRIPOS>BOND
     1     1    11 1   
     2     1    20 1   
     3     1    26 1   
     4     1    27 1   
     5     2     3 1   
     6     2     4 2   
     7     2    40 1   
     8     3     6 2   
     9     3    10 1   
    10     4     5 1   
    11     4    28 1   
    12     5    23 1   
    13     5    24 2   
    14     6    23 1   
    15     6    29 1   
    16     7    24 1   
    17     7    25 2   
    18     7    30 1   
    19     8    15 ar  
    20     8    19 ar  
    21     8    31 1   
    22     9    17 1   
    23     9    32 1   
    24     9    33 1   
    25     9    34 1   
    26    10    11 1   
    27    10    14 2   
    28    11    12 1   
    29    12    13 2   
    30    12    35 1   
    31    13    14 1   
    32    14    15 1   
    33    15    16 ar  
    34    16    17 ar  
    35    17    18 ar  
    36    18    19 ar  
    37    18    36 1   
    38    19    37 1   
    39    20    21 1   
    40    20    22 1   
    41    20    38 1   
    42    23    25 1   
    43    25    39 1   
@<TRIPOS>SUBSTRUCTURE
     1 QMY         1 TEMP              0 ****  ****    0 ROOT
