@<TRIPOS>MOLECULE
QMZ
   52    55     1     0     0
SMALL
abcg2


@<TRIPOS>ATOM
      1 C1         -24.1150    -6.7110     0.0260 c6         1 QMZ      -0.044400
      2 C2         -23.3260    -5.4350     0.3100 c6         1 QMZ      -0.071400
      3 C20        -25.0360   -10.1490    -3.1740 ca         1 QMZ       0.155100
      4 C21        -24.6930   -11.4990    -3.0810 ca         1 QMZ       0.037100
      5 C22        -23.4180   -11.8700    -2.6390 ca         1 QMZ       0.155100
      6 C23        -22.4830   -10.8920    -2.3080 ca         1 QMZ      -0.190500
      7 C25        -26.6210    -8.5490    -3.9110 c3         1 QMZ       0.143400
      8 C29        -21.9210   -13.6340    -2.1310 c3         1 QMZ       0.143400
      9 C16        -21.8370    -8.5020    -2.0570 c          1 QMZ       0.620700
     10 C18        -22.8490    -9.5550    -2.3850 ca         1 QMZ      -0.078600
     11 O26        -25.5930   -12.4510    -3.4380 os         1 QMZ      -0.328100
     12 C27        -26.3940   -12.9290    -2.3640 c3         1 QMZ       0.149900
     13 O24        -26.2820    -9.8880    -3.6000 os         1 QMZ      -0.325100
     14 C19        -24.1060    -9.1730    -2.8280 ca         1 QMZ      -0.190500
     15 N5         -22.1200    -7.6780    -1.0250 n          1 QMZ      -0.412800
     16 C4         -21.3110    -6.4990    -0.7610 c6         1 QMZ       0.091000
     17 C3         -22.2050    -5.2680    -0.7100 c6         1 QMZ      -0.094400
     18 C6         -23.1540    -7.9120    -0.0380 c6         1 QMZ       0.113000
     19 C7         -25.1810    -6.9800     1.0410 cc         1 QMZ       0.010700
     20 C12        -25.2540    -6.4790     2.3110 cd         1 QMZ      -0.227000
     21 C11        -26.3120    -6.8680     3.1570 cd         1 QMZ       0.388900
     22 N10        -27.2650    -7.6980     2.8150 nc         1 QMZ      -0.620000
     23 N8         -26.1810    -7.8360     0.7100 na         1 QMZ       0.083900
     24 N13        -26.3500    -8.4600    -0.4600 nc         1 QMZ      -0.612100
     25 C14        -27.4500    -9.1540    -0.2500 cd         1 QMZ       0.543200
     26 N15        -28.0060    -9.0270     0.9630 nd         1 QMZ      -0.370300
     27 C9         -27.1940    -8.1830     1.5760 cc         1 QMZ       0.401500
     28 H1         -24.6030    -6.6210    -0.9510 hc         1 QMZ       0.092700
     29 H2         -22.8850    -5.4830     1.3100 hc         1 QMZ       0.047700
     30 H3         -23.9880    -4.5680     0.2930 hc         1 QMZ       0.047700
     31 H4         -21.4920   -11.1570    -1.9670 ha         1 QMZ       0.129000
     32 H5         -27.6430    -8.5700    -4.2830 h1         1 QMZ       0.044367
     33 H6         -26.5790    -7.9020    -3.0340 h1         1 QMZ       0.044367
     34 H7         -25.9710    -8.1410    -4.6890 h1         1 QMZ       0.044367
     35 H8         -21.9560   -14.7210    -2.1360 h1         1 QMZ       0.044367
     36 H9         -21.1160   -13.3060    -2.7920 h1         1 QMZ       0.044367
     37 H10        -21.7060   -13.2930    -1.1150 h1         1 QMZ       0.044367
     38 H11        -27.1020   -13.6420    -2.7840 h1         1 QMZ       0.033700
     39 H12        -25.7940   -13.4350    -1.6050 h1         1 QMZ       0.033700
     40 H13        -26.9550   -12.1220    -1.8870 h1         1 QMZ       0.033700
     41 H14        -24.3640    -8.1240    -2.8740 ha         1 QMZ       0.129000
     42 H15        -20.7870    -6.6270     0.1920 h1         1 QMZ       0.062200
     43 H16        -20.5570    -6.4000    -1.5370 h1         1 QMZ       0.062200
     44 H17        -21.5990    -4.3970    -0.4550 hc         1 QMZ       0.054700
     45 H18        -22.6240    -5.0860    -1.7030 hc         1 QMZ       0.054700
     46 H19        -23.6920    -8.8300    -0.2600 h1         1 QMZ       0.063700
     47 H20        -22.6790    -8.0370     0.9410 h1         1 QMZ       0.063700
     48 H21        -24.5090    -5.7900     2.6790 ha         1 QMZ       0.145000
     49 H22        -26.3550    -6.4640     4.1620 h4         1 QMZ       0.037100
     50 H23        -27.8650    -9.7800    -1.0250 h5         1 QMZ       0.080800
     51 O28        -23.1880   -13.1920    -2.5790 os         1 QMZ      -0.325100
     52 O17        -20.8220    -8.4020    -2.7330 o          1 QMZ      -0.584100
@<TRIPOS>BOND
     1     1     2 1   
     2     1    18 1   
     3     1    19 1   
     4     1    28 1   
     5     2    17 1   
     6     2    29 1   
     7     2    30 1   
     8     3     4 ar  
     9     3    13 1   
    10     3    14 ar  
    11     4     5 ar  
    12     4    11 1   
    13     5     6 ar  
    14     5    51 1   
    15     6    10 ar  
    16     6    31 1   
    17     7    13 1   
    18     7    32 1   
    19     7    33 1   
    20     7    34 1   
    21     8    35 1   
    22     8    36 1   
    23     8    37 1   
    24     8    51 1   
    25     9    10 1   
    26     9    15 1   
    27     9    52 2   
    28    10    14 ar  
    29    11    12 1   
    30    12    38 1   
    31    12    39 1   
    32    12    40 1   
    33    14    41 1   
    34    15    16 1   
    35    15    18 1   
    36    16    17 1   
    37    16    42 1   
    38    16    43 1   
    39    17    44 1   
    40    17    45 1   
    41    18    46 1   
    42    18    47 1   
    43    19    20 2   
    44    19    23 1   
    45    20    21 1   
    46    20    48 1   
    47    21    22 2   
    48    21    49 1   
    49    22    27 1   
    50    23    24 1   
    51    23    27 1   
    52    24    25 2   
    53    25    26 1   
    54    25    50 1   
    55    26    27 2   
@<TRIPOS>SUBSTRUCTURE
     1 QMZ         1 TEMP              0 ****  ****    0 ROOT
