@<TRIPOS>MOLECULE
QMZ
   52    55     1     0     0
SMALL
No Charge or Current Charge


@<TRIPOS>ATOM
      1 C1         -24.2960    -6.5330     0.0490 c6         1 QMZ      -0.044400
      2 C2         -23.4390    -5.2650     0.2780 c6         1 QMZ      -0.071400
      3 C20        -24.8430   -10.7970    -2.9690 ca         1 QMZ       0.155100
      4 C21        -24.2980   -12.1170    -3.0180 ca         1 QMZ       0.037100
      5 C22        -22.9400   -12.3130    -2.6710 ca         1 QMZ       0.155100
      6 C23        -22.1390   -11.2230    -2.2700 ca         1 QMZ      -0.190500
      7 C25        -26.7970    -9.2750    -3.1880 c3         1 QMZ       0.143400
      8 C29        -21.0620   -13.9110    -2.4040 c3         1 QMZ       0.143400
      9 C16        -21.7750    -8.7610    -1.7750 c          1 QMZ       0.620700
     10 C18        -22.6690    -9.9210    -2.1970 ca         1 QMZ      -0.078600
     11 O26        -25.0110   -13.2570    -3.3940 os         1 QMZ      -0.328100
     12 C27        -26.3980   -13.2780    -3.7770 c3         1 QMZ       0.149900
     13 O24        -26.1670   -10.5640    -3.3060 os         1 QMZ      -0.325100
     14 C19        -24.0150    -9.7210    -2.5740 ca         1 QMZ      -0.190500
     15 N5         -22.3890    -7.6090    -1.2310 n          1 QMZ      -0.412800
     16 C4         -21.5820    -6.3600    -1.0960 c6         1 QMZ       0.091000
     17 C3         -22.4470    -5.0920    -0.8910 c6         1 QMZ      -0.094400
     18 C6         -23.3880    -7.7730    -0.1310 c6         1 QMZ       0.113000
     19 C7         -25.2810    -6.7580     1.1850 cc         1 QMZ       0.010700
     20 C12        -24.8960    -6.8800     2.5190 cd         1 QMZ      -0.227000
     21 C11        -25.8410    -7.0970     3.5880 cd         1 QMZ       0.388900
     22 N10        -27.1520    -7.2060     3.4000 nc         1 QMZ      -0.620000
     23 N8         -26.6660    -6.8880     1.0160 na         1 QMZ       0.083900
     24 N13        -27.2980    -6.8270    -0.1760 nc         1 QMZ      -0.612100
     25 C14        -28.5590    -7.0020     0.2290 cd         1 QMZ       0.543200
     26 N15        -28.7180    -7.1680     1.6020 nd         1 QMZ      -0.370300
     27 C9         -27.5010    -7.0940     2.0830 cc         1 QMZ       0.401500
     28 H1         -24.8410    -6.3940    -0.8950 hc         1 QMZ       0.092700
     29 H2         -22.8820    -5.3350     1.2220 hc         1 QMZ       0.047700
     30 H3         -24.0860    -4.3800     0.3560 hc         1 QMZ       0.047700
     31 H4         -21.0970   -11.3710    -1.9990 ha         1 QMZ       0.129000
     32 H5         -27.8530    -9.3420    -3.4760 h1         1 QMZ       0.044367
     33 H6         -26.7490    -8.9110    -2.1540 h1         1 QMZ       0.044367
     34 H7         -26.3130    -8.5410    -3.8460 h1         1 QMZ       0.044367
     35 H8         -20.8780   -14.9860    -2.5260 h1         1 QMZ       0.044367
     36 H9         -20.3680   -13.3720    -3.0620 h1         1 QMZ       0.044367
     37 H10        -20.8410   -13.6460    -1.3620 h1         1 QMZ       0.044367
     38 H11        -26.7060   -14.3030    -4.0180 h1         1 QMZ       0.033700
     39 H12        -27.0360   -12.9210    -2.9590 h1         1 QMZ       0.033700
     40 H13        -26.5690   -12.6590    -4.6670 h1         1 QMZ       0.033700
     41 H14        -24.4020    -8.7070    -2.5680 ha         1 QMZ       0.129000
     42 H15        -20.8970    -6.4730    -0.2430 h1         1 QMZ       0.062200
     43 H16        -20.9640    -6.2220    -1.9940 h1         1 QMZ       0.062200
     44 H17        -21.7980    -4.2250    -0.7100 hc         1 QMZ       0.054700
     45 H18        -23.0010    -4.8790    -1.8160 hc         1 QMZ       0.054700
     46 H19        -24.0200    -8.6550    -0.2920 h1         1 QMZ       0.063700
     47 H20        -22.8400    -7.9550     0.8050 h1         1 QMZ       0.063700
     48 H21        -23.8470    -6.8110     2.7840 ha         1 QMZ       0.145000
     49 H22        -25.5290    -7.1870     4.6210 h4         1 QMZ       0.037100
     50 H23        -29.4100    -7.0180    -0.4410 h5         1 QMZ       0.080800
     51 O28        -22.4270   -13.6000    -2.7340 os         1 QMZ      -0.325100
     52 O17        -20.5690    -8.7870    -1.9910 o          1 QMZ      -0.584100
@<TRIPOS>BOND
     1     1     2 1   
     2     1    18 1   
     3     1    19 1   
     4     1    28 1   
     5     2    17 1   
     6     2    29 1   
     7     2    30 1   
     8     3     4 ar  
     9     3    13 1   
    10     3    14 ar  
    11     4     5 ar  
    12     4    11 1   
    13     5     6 ar  
    14     5    51 1   
    15     6    10 ar  
    16     6    31 1   
    17     7    13 1   
    18     7    32 1   
    19     7    33 1   
    20     7    34 1   
    21     8    35 1   
    22     8    36 1   
    23     8    37 1   
    24     8    51 1   
    25     9    10 1   
    26     9    15 1   
    27     9    52 2   
    28    10    14 ar  
    29    11    12 1   
    30    12    38 1   
    31    12    39 1   
    32    12    40 1   
    33    14    41 1   
    34    15    16 1   
    35    15    18 1   
    36    16    17 1   
    37    16    42 1   
    38    16    43 1   
    39    17    44 1   
    40    17    45 1   
    41    18    46 1   
    42    18    47 1   
    43    19    20 2   
    44    19    23 1   
    45    20    21 1   
    46    20    48 1   
    47    21    22 2   
    48    21    49 1   
    49    22    27 1   
    50    23    24 1   
    51    23    27 1   
    52    24    25 2   
    53    25    26 1   
    54    25    50 1   
    55    26    27 2   
@<TRIPOS>SUBSTRUCTURE
     1 QMZ         1 TEMP              0 ****  ****    0 ROOT
