@<TRIPOS>MOLECULE
QN0
   51    53     1     0     0
SMALL
No Charge or Current Charge


@<TRIPOS>ATOM
      1 C01        -52.4640   -28.9140    12.0670 c3         1 QN0      -0.108600
      2 C02        -52.8890   -28.8080    10.5910 c3         1 QN0       0.122700
      3 C04        -51.5970   -28.9210     8.4350 c          1 QN0       0.657100
      4 C06        -49.9470   -29.5290     6.5630 ca         1 QN0      -0.005000
      5 C07        -48.8790   -30.4000     6.2860 ca         1 QN0      -0.172500
      6 C08        -48.2330   -30.3830     5.0370 ca         1 QN0      -0.042500
      7 C09        -48.6480   -29.4840     4.0260 ca         1 QN0      -0.159600
      8 C10        -47.9860   -29.4280     2.6620 c          1 QN0       0.606700
      9 C12        -46.2240   -30.2720     1.1750 c5         1 QN0       0.165000
     10 C13        -45.0050   -29.2680     1.3730 c5         1 QN0      -0.203700
     11 C14        -44.5330   -29.1460     2.8510 c          1 QN0       0.718000
     12 C17        -43.8200   -29.8480     0.4990 c5         1 QN0      -0.005100
     13 C18        -44.1940   -31.3080     0.4100 ca         1 QN0      -0.087300
     14 C19        -43.3710   -32.3690    -0.0070 ca         1 QN0       0.126100
     15 C21        -43.8940   -33.6740    -0.0310 ca         1 QN0      -0.212000
     16 C22        -45.2300   -33.9080     0.3560 ca         1 QN0      -0.094000
     17 C23        -46.0430   -32.8350     0.7660 ca         1 QN0      -0.118000
     18 C24        -45.5030   -31.5380     0.7910 ca         1 QN0      -0.042300
     19 C26        -49.7210   -28.6100     4.3090 ca         1 QN0      -0.042500
     20 C27        -50.3620   -28.6310     5.5600 ca         1 QN0      -0.172500
     21 C29        -54.2270   -29.5210    10.3170 c3         1 QN0      -0.108600
     22 N03        -51.8350   -29.3360     9.7250 ns         1 QN0      -0.526900
     23 N05        -50.5460   -29.6090     7.8500 ns         1 QN0      -0.162000
     24 N11        -46.9640   -30.3290     2.4390 ns         1 QN0      -0.474900
     25 O15        -44.1500   -30.1360     3.4600 o          1 QN0      -0.730500
     26 O16        -44.5340   -28.0390     3.3670 o          1 QN0      -0.730500
     27 O20        -42.0810   -32.1460    -0.3890 oh         1 QN0      -0.540100
     28 O25        -48.3460   -28.6290     1.8060 o          1 QN0      -0.662100
     29 O28        -52.2570   -28.0420     7.8990 o          1 QN0      -0.631100
     30 H011       -53.2310   -28.4810    12.7210 hc         1 QN0       0.040367
     31 H012       -52.3170   -29.9620    12.3580 hc         1 QN0       0.040367
     32 H013       -51.5260   -28.3720    12.2390 hc         1 QN0       0.040367
     33 H021       -53.0210   -27.7400    10.3620 h1         1 QN0       0.080700
     34 H071       -48.5410   -31.1000     7.0470 ha         1 QN0       0.124000
     35 H081       -47.4110   -31.0770     4.8800 ha         1 QN0       0.140000
     36 H121       -46.8540   -29.9640     0.3280 h1         1 QN0       0.062700
     37 H131       -45.2830   -28.2640     1.0330 hc         1 QN0       0.053700
     38 H171       -43.7980   -29.3900    -0.4970 hc         1 QN0       0.051700
     39 H172       -42.8360   -29.6820     0.9530 hc         1 QN0       0.051700
     40 H211       -43.2750   -34.5090    -0.3500 ha         1 QN0       0.092000
     41 H221       -45.6350   -34.9180     0.3330 ha         1 QN0       0.094000
     42 H231       -47.0770   -33.0080     1.0570 ha         1 QN0       0.119000
     43 H261       -50.0660   -27.9040     3.5550 ha         1 QN0       0.140000
     44 H271       -51.1810   -27.9390     5.7260 ha         1 QN0       0.124000
     45 H291       -54.5260   -29.3950     9.2690 hc         1 QN0       0.040367
     46 H292       -54.1470   -30.5950    10.5250 hc         1 QN0       0.040367
     47 H293       -55.0220   -29.1060    10.9480 hc         1 QN0       0.040367
     48 H031       -51.2380   -30.0680    10.0890 hn         1 QN0       0.301500
     49 H051       -50.1200   -30.3020     8.4500 hn         1 QN0       0.140000
     50 H111       -46.7040   -30.9440     3.1970 hn         1 QN0       0.373500
     51 H201       -41.6840   -33.0060    -0.6400 ho         1 QN0       0.443000
@<TRIPOS>BOND
     1     1     2 1   
     2     1    30 1   
     3     1    31 1   
     4     1    32 1   
     5     2    21 1   
     6     2    22 1   
     7     2    33 1   
     8     3    22 1   
     9     3    23 1   
    10     3    29 2   
    11     4     5 ar  
    12     4    20 ar  
    13     4    23 1   
    14     5     6 ar  
    15     5    34 1   
    16     6     7 ar  
    17     6    35 1   
    18     7     8 1   
    19     7    19 ar  
    20     8    24 1   
    21     8    28 2   
    22     9    10 1   
    23     9    18 1   
    24     9    24 1   
    25     9    36 1   
    26    10    11 1   
    27    10    12 1   
    28    10    37 1   
    29    11    25 1   
    30    11    26 1   
    31    12    13 1   
    32    12    38 1   
    33    12    39 1   
    34    13    14 ar  
    35    13    18 ar  
    36    14    15 ar  
    37    14    27 1   
    38    15    16 ar  
    39    15    40 1   
    40    16    17 ar  
    41    16    41 1   
    42    17    18 ar  
    43    17    42 1   
    44    19    20 ar  
    45    19    43 1   
    46    20    44 1   
    47    21    45 1   
    48    21    46 1   
    49    21    47 1   
    50    22    48 1   
    51    23    49 1   
    52    24    50 1   
    53    27    51 1   
@<TRIPOS>SUBSTRUCTURE
     1 QN0         1 TEMP              0 ****  ****    0 ROOT
