@<TRIPOS>MOLECULE
QN0
   51    53     1     0     0
SMALL
abcg2


@<TRIPOS>ATOM
      1 C01        -53.0450   -28.3710    11.6520 c3         1 QN0      -0.108600
      2 C02        -53.1640   -29.0220    10.2780 c3         1 QN0       0.122700
      3 C04        -51.6470   -29.1450     8.3320 c          1 QN0       0.657100
      4 C06        -49.7810   -29.4010     6.6810 ca         1 QN0      -0.005000
      5 C07        -48.3820   -29.4360     6.5890 ca         1 QN0      -0.172500
      6 C08        -47.7520   -29.4790     5.3600 ca         1 QN0      -0.042500
      7 C09        -48.4930   -29.4850     4.1730 ca         1 QN0      -0.159600
      8 C10        -47.8700   -29.4990     2.8140 c          1 QN0       0.606700
      9 C12        -45.7940   -29.8770     1.5420 c5         1 QN0       0.165000
     10 C13        -44.3400   -29.3670     1.7240 c5         1 QN0      -0.203700
     11 C14        -43.6720   -29.6830     3.0860 c          1 QN0       0.718000
     12 C17        -43.5540   -30.0860     0.5900 c5         1 QN0      -0.005100
     13 C18        -44.3510   -31.3420     0.3560 ca         1 QN0      -0.087300
     14 C19        -43.9770   -32.5050    -0.3080 ca         1 QN0       0.126100
     15 C21        -44.8840   -33.5630    -0.3980 ca         1 QN0      -0.212000
     16 C22        -46.1510   -33.4490     0.1690 ca         1 QN0      -0.094000
     17 C23        -46.5370   -32.2830     0.8290 ca         1 QN0      -0.118000
     18 C24        -45.6210   -31.2440     0.9110 ca         1 QN0      -0.042300
     19 C26        -49.8840   -29.4510     4.2730 ca         1 QN0      -0.042500
     20 C27        -50.5320   -29.4180     5.4980 ca         1 QN0      -0.172500
     21 C29        -53.8390   -30.3920    10.3490 c3         1 QN0      -0.108600
     22 N03        -51.8340   -29.1120     9.6770 ns         1 QN0      -0.526900
     23 N05        -50.3310   -29.3650     7.9610 ns         1 QN0      -0.162000
     24 N11        -46.5760   -29.8570     2.7560 ns         1 QN0      -0.474900
     25 O15        -44.1970   -30.5500     3.8400 o          1 QN0      -0.730500
     26 O16        -42.6170   -29.0500     3.3270 o          1 QN0      -0.730500
     27 O20        -42.7200   -32.5650    -0.8430 oh         1 QN0      -0.540100
     28 O25        -48.5250   -29.1880     1.8090 o          1 QN0      -0.662100
     29 O28        -52.5580   -28.9710     7.5220 o          1 QN0      -0.631100
     30 H011       -54.0310   -28.2810    12.1100 hc         1 QN0       0.040367
     31 H012       -52.4200   -28.9780    12.3130 hc         1 QN0       0.040367
     32 H013       -52.6040   -27.3760    11.5760 hc         1 QN0       0.040367
     33 H021       -53.7510   -28.3750     9.6270 h1         1 QN0       0.080700
     34 H071       -47.7900   -29.4170     7.4970 ha         1 QN0       0.124000
     35 H081       -46.6700   -29.4840     5.3400 ha         1 QN0       0.140000
     36 H121       -46.3070   -29.2300     0.8270 h1         1 QN0       0.062700
     37 H131       -44.2970   -28.2860     1.5950 hc         1 QN0       0.053700
     38 H171       -43.5320   -29.4700    -0.3150 hc         1 QN0       0.051700
     39 H172       -42.5170   -30.2790     0.8670 hc         1 QN0       0.051700
     40 H211       -44.5900   -34.4740    -0.9070 ha         1 QN0       0.092000
     41 H221       -46.8400   -34.2820     0.0930 ha         1 QN0       0.094000
     42 H231       -47.5210   -32.1960     1.2730 ha         1 QN0       0.119000
     43 H261       -50.4690   -29.4550     3.3630 ha         1 QN0       0.140000
     44 H271       -51.6070   -29.3990     5.5460 ha         1 QN0       0.124000
     45 H291       -53.9040   -30.8400     9.3570 hc         1 QN0       0.040367
     46 H292       -53.2700   -31.0640    10.9970 hc         1 QN0       0.040367
     47 H293       -54.8490   -30.2990    10.7520 hc         1 QN0       0.040367
     48 H031       -51.0810   -29.3970    10.2840 hn         1 QN0       0.301500
     49 H051       -49.6570   -29.4120     8.7100 hn         1 QN0       0.140000
     50 H111       -46.0660   -30.2020     3.5630 hn         1 QN0       0.373500
     51 H201       -42.5730   -33.4340    -1.2400 ho         1 QN0       0.443000
@<TRIPOS>BOND
     1     1     2 1   
     2     1    30 1   
     3     1    31 1   
     4     1    32 1   
     5     2    21 1   
     6     2    22 1   
     7     2    33 1   
     8     3    22 1   
     9     3    23 1   
    10     3    29 2   
    11     4     5 ar  
    12     4    20 ar  
    13     4    23 1   
    14     5     6 ar  
    15     5    34 1   
    16     6     7 ar  
    17     6    35 1   
    18     7     8 1   
    19     7    19 ar  
    20     8    24 1   
    21     8    28 2   
    22     9    10 1   
    23     9    18 1   
    24     9    24 1   
    25     9    36 1   
    26    10    11 1   
    27    10    12 1   
    28    10    37 1   
    29    11    25 1   
    30    11    26 1   
    31    12    13 1   
    32    12    38 1   
    33    12    39 1   
    34    13    14 ar  
    35    13    18 ar  
    36    14    15 ar  
    37    14    27 1   
    38    15    16 ar  
    39    15    40 1   
    40    16    17 ar  
    41    16    41 1   
    42    17    18 ar  
    43    17    42 1   
    44    19    20 ar  
    45    19    43 1   
    46    20    44 1   
    47    21    45 1   
    48    21    46 1   
    49    21    47 1   
    50    22    48 1   
    51    23    49 1   
    52    24    50 1   
    53    27    51 1   
@<TRIPOS>SUBSTRUCTURE
     1 QN0         1 TEMP              0 ****  ****    0 ROOT
