@<TRIPOS>MOLECULE
QN1
   84    88     1     0     0
SMALL
abcg2


@<TRIPOS>ATOM
      1 N1           2.6330     4.4320     2.6750 nt         1 QN1      -0.600000
      2 C8           2.5930     4.5740     1.3430 c          1 QN1       0.611200
      3 C6           1.3130     4.1620     0.6780 ca         1 QN1      -0.100100
      4 C2           1.3670     3.7670    -0.6550 ca         1 QN1      -0.095250
      5 C18          0.2220     3.3580    -1.3150 ca         1 QN1      -0.028500
      6 C27         -0.9930     3.3600    -0.6380 ca         1 QN1      -0.275000
      7 C20         -1.0750     3.8140     0.6720 ca         1 QN1      -0.028500
      8 C5           0.0830     4.2010     1.3290 ca         1 QN1      -0.095250
      9 S9          -2.4480     2.7250    -1.4410 sy         1 QN1       1.179100
     10 O40         -3.5550     3.5750    -1.0380 o          1 QN1      -0.535000
     11 O11         -2.1280     2.5650    -2.8490 o          1 QN1      -0.535000
     12 N32         -2.7390     1.2230    -0.8290 n3         1 QN1      -0.766500
     13 C33         -3.1620     1.1220     0.5690 c3         1 QN1       0.254100
     14 C34         -4.3160     0.1670     0.7120 ca         1 QN1      -0.082800
     15 C38         -5.5030     0.3970     0.0190 ca         1 QN1      -0.107250
     16 C39         -6.5730    -0.4660     0.1570 ca         1 QN1      -0.055750
     17 C37         -6.4670    -1.5760     0.9940 ca         1 QN1      -0.189300
     18 C10         -7.6390    -2.4980     1.1120 c3         1 QN1       0.357300
     19 F6          -7.4680    -3.4370     2.0470 f          1 QN1      -0.111833
     20 F5          -8.7620    -1.8350     1.4220 f          1 QN1      -0.111833
     21 F4          -7.8840    -3.1360    -0.0430 f          1 QN1      -0.111833
     22 C36         -5.2870    -1.8180     1.6800 ca         1 QN1      -0.055750
     23 C35         -4.2150    -0.9460     1.5330 ca         1 QN1      -0.107250
     24 C24         -2.1740    -0.0040    -1.4040 c5         1 QN1       0.178000
     25 C25         -2.5280    -0.3340    -2.8730 c5         1 QN1       0.138300
     26 N22         -1.2780    -0.4010    -3.6210 n7         1 QN1      -0.816400
     27 C21         -0.3060    -0.8950    -2.6610 c5         1 QN1       0.138300
     28 C23         -0.6350    -0.1240    -1.3660 c5         1 QN1       0.178000
     29 N28         -0.0790    -0.5480    -0.0830 n3         1 QN1      -0.766500
     30 C7           0.5890     0.4280     0.7680 c3         1 QN1       0.254100
     31 C12          2.0850     0.5240     0.5990 ca         1 QN1      -0.082800
     32 C14          2.8460     1.0180     1.6530 ca         1 QN1      -0.107250
     33 C30          4.2240     1.0890     1.5650 ca         1 QN1      -0.055750
     34 C31          4.8650     0.6550     0.4090 ca         1 QN1      -0.189300
     35 C11          6.3570     0.6280     0.3540 c3         1 QN1       0.357300
     36 F3           6.8250     0.6430    -0.8990 f          1 QN1      -0.111833
     37 F2           6.9090     1.6690     0.9920 f          1 QN1      -0.111833
     38 F1           6.8510    -0.4790     0.9350 f          1 QN1      -0.111833
     39 C29          4.1140     0.1800    -0.6570 ca         1 QN1      -0.055750
     40 C13          2.7330     0.1300    -0.5630 ca         1 QN1      -0.107250
     41 S8          -0.1880    -2.0880     0.4980 sy         1 QN1       1.179100
     42 C26          1.4770    -2.6840     0.3760 ca         1 QN1      -0.275000
     43 C17          1.9360    -3.1540    -0.8470 ca         1 QN1      -0.028500
     44 C1           3.2850    -3.4130    -1.0040 ca         1 QN1      -0.095250
     45 C4           4.1670    -3.2310     0.0580 ca         1 QN1      -0.100100
     46 C9           5.6290    -3.4490    -0.1860 c          1 QN1       0.611200
     47 O1           6.1110    -3.2440    -1.2890 o          1 QN1      -0.585600
     48 N2           6.3400    -3.8740     0.8660 nt         1 QN1      -0.600000
     49 C3           3.6820    -2.7950     1.2860 ca         1 QN1      -0.095250
     50 C19          2.3350    -2.5180     1.4520 ca         1 QN1      -0.028500
     51 O41         -0.5290    -2.0300     1.9110 o          1 QN1      -0.535000
     52 O10         -1.0420    -2.8420    -0.4030 o          1 QN1      -0.535000
     53 O2           3.5210     5.0140     0.6840 o          1 QN1      -0.585600
     54 HN11         1.9150     3.9540     3.1910 hn         1 QN1       0.317750
     55 HN12         3.4720     4.6720     3.1780 hn         1 QN1       0.317750
     56 H2           2.3110     3.7590    -1.1820 ha         1 QN1       0.132750
     57 H18          0.2880     3.0420    -2.3470 ha         1 QN1       0.138250
     58 H20         -2.0210     3.8730     1.1930 ha         1 QN1       0.138250
     59 H5          -0.0010     4.5510     2.3490 ha         1 QN1       0.132750
     60 H331        -2.3300     0.8040     1.2040 h1         1 QN1       0.066700
     61 H332        -3.4770     2.1000     0.9310 h1         1 QN1       0.066700
     62 H38         -5.5890     1.2570    -0.6330 ha         1 QN1       0.124750
     63 H39         -7.4870    -0.2660    -0.3870 ha         1 QN1       0.136250
     64 H36         -5.1790    -2.6770     2.3270 ha         1 QN1       0.136250
     65 H35         -3.2910    -1.1470     2.0610 ha         1 QN1       0.124750
     66 H24         -2.5940    -0.7910    -0.7800 h1         1 QN1       0.069200
     67 H251        -2.9980    -1.3200    -2.8900 h1         1 QN1       0.076700
     68 H252        -3.2300     0.3610    -3.3240 h1         1 QN1       0.076700
     69 HN22        -1.0160     0.5350    -3.9040 hn         1 QN1       0.425000
     70 H211        -0.4350    -1.9700    -2.5460 h1         1 QN1       0.076700
     71 H212         0.7110    -0.7090    -3.0050 h1         1 QN1       0.076700
     72 H23         -0.2030     0.8630    -1.5280 h1         1 QN1       0.069200
     73 H71          0.1370     1.3990     0.5700 h1         1 QN1       0.066700
     74 H72          0.3550     0.2280     1.8140 h1         1 QN1       0.066700
     75 H14          2.3590     1.3280     2.5700 ha         1 QN1       0.124750
     76 H30          4.7860     1.4690     2.4080 ha         1 QN1       0.136250
     77 H29          4.5890    -0.1680    -1.5640 ha         1 QN1       0.136250
     78 H13          2.1790    -0.2590    -1.4060 ha         1 QN1       0.124750
     79 H17          1.2640    -3.2930    -1.6830 ha         1 QN1       0.138250
     80 H1           3.6520    -3.7570    -1.9610 ha         1 QN1       0.132750
     81 HN21         5.9130    -4.1550     1.7310 hn         1 QN1       0.317750
     82 HN2A         7.3300    -4.0310     0.7710 hn         1 QN1       0.317750
     83 H3           4.3510    -2.6280     2.1200 ha         1 QN1       0.132750
     84 H19          1.9780    -2.1510     2.4040 ha         1 QN1       0.138250
@<TRIPOS>BOND
     1     1     2 1   
     2     1    54 1   
     3     1    55 1   
     4     2     3 1   
     5     2    53 2   
     6     3     4 ar  
     7     3     8 ar  
     8     4     5 ar  
     9     4    56 1   
    10     5     6 ar  
    11     5    57 1   
    12     6     7 ar  
    13     6     9 1   
    14     7     8 ar  
    15     7    58 1   
    16     8    59 1   
    17     9    10 2   
    18     9    11 2   
    19     9    12 1   
    20    12    13 1   
    21    12    24 1   
    22    13    14 1   
    23    13    60 1   
    24    13    61 1   
    25    14    15 ar  
    26    14    23 ar  
    27    15    16 ar  
    28    15    62 1   
    29    16    17 ar  
    30    16    63 1   
    31    17    18 1   
    32    17    22 ar  
    33    18    19 1   
    34    18    20 1   
    35    18    21 1   
    36    22    23 ar  
    37    22    64 1   
    38    23    65 1   
    39    24    25 1   
    40    24    28 1   
    41    24    66 1   
    42    25    26 1   
    43    25    67 1   
    44    25    68 1   
    45    26    27 1   
    46    26    69 1   
    47    27    28 1   
    48    27    70 1   
    49    27    71 1   
    50    28    29 1   
    51    28    72 1   
    52    29    30 1   
    53    29    41 1   
    54    30    31 1   
    55    30    73 1   
    56    30    74 1   
    57    31    32 ar  
    58    31    40 ar  
    59    32    33 ar  
    60    32    75 1   
    61    33    34 ar  
    62    33    76 1   
    63    34    35 1   
    64    34    39 ar  
    65    35    36 1   
    66    35    37 1   
    67    35    38 1   
    68    39    40 ar  
    69    39    77 1   
    70    40    78 1   
    71    41    42 1   
    72    41    51 2   
    73    41    52 2   
    74    42    43 ar  
    75    42    50 ar  
    76    43    44 ar  
    77    43    79 1   
    78    44    45 ar  
    79    44    80 1   
    80    45    46 1   
    81    45    49 ar  
    82    46    47 2   
    83    46    48 1   
    84    48    81 1   
    85    48    82 1   
    86    49    50 ar  
    87    49    83 1   
    88    50    84 1   
@<TRIPOS>SUBSTRUCTURE
     1 QN1         1 TEMP              0 ****  ****    0 ROOT
