@<TRIPOS>MOLECULE
QN1
   84    88     1     0     0
SMALL
No Charge or Current Charge


@<TRIPOS>ATOM
      1 N1          -0.2040     7.7650     3.2120 nt         1 QN1      -0.600000
      2 C8           0.4750     7.0840     2.2620 c          1 QN1       0.611200
      3 C6          -0.3010     6.1660     1.3360 ca         1 QN1      -0.100100
      4 C2           0.3860     5.4440     0.3340 ca         1 QN1      -0.095250
      5 C18         -0.3030     4.5860    -0.5390 ca         1 QN1      -0.028500
      6 C27         -1.6980     4.4280    -0.4220 ca         1 QN1      -0.275000
      7 C20         -2.3960     5.1460     0.5690 ca         1 QN1      -0.028500
      8 C5          -1.7050     6.0050     1.4400 ca         1 QN1      -0.095250
      9 S9          -2.5780     3.3130    -1.5420 sy         1 QN1       1.179100
     10 O40         -4.0230     3.5350    -1.4330 o          1 QN1      -0.535000
     11 O11         -1.8720     3.3990    -2.8240 o          1 QN1      -0.535000
     12 N32         -2.2710     1.7440    -0.9030 n3         1 QN1      -0.766500
     13 C33         -1.7280     1.7230     0.4820 c3         1 QN1       0.254100
     14 C34         -1.9590     0.4320     1.2710 ca         1 QN1      -0.082800
     15 C38         -3.1970    -0.2380     1.2180 ca         1 QN1      -0.107250
     16 C39         -3.4060    -1.4120     1.9610 ca         1 QN1      -0.055750
     17 C37         -2.3890    -1.9270     2.7910 ca         1 QN1      -0.189300
     18 C10         -2.6450    -3.2090     3.5890 c3         1 QN1       0.357300
     19 F6          -1.6270    -3.5300     4.4200 f          1 QN1      -0.111833
     20 F5          -3.7550    -3.1050     4.3540 f          1 QN1      -0.111833
     21 F4          -2.8280    -4.2690     2.7690 f          1 QN1      -0.111833
     22 C36         -1.1580    -1.2370     2.8670 ca         1 QN1      -0.055750
     23 C35         -0.9510    -0.0670     2.1180 ca         1 QN1      -0.107250
     24 C24         -2.0540     0.5000    -1.7560 c5         1 QN1       0.178000
     25 C25         -3.1110     0.4500    -2.9210 c5         1 QN1       0.138300
     26 N22         -2.4200     0.9690    -4.1340 n7         1 QN1      -0.816400
     27 C21         -1.0850     0.3320    -4.0280 c5         1 QN1       0.138300
     28 C23         -0.6730     0.5620    -2.5280 c5         1 QN1       0.178000
     29 N28          0.2710    -0.5160    -2.0470 n3         1 QN1      -0.766500
     30 C7           1.0020    -0.1820    -0.8040 c3         1 QN1       0.254100
     31 C12          2.4900    -0.5250    -0.8130 ca         1 QN1      -0.082800
     32 C14          3.1130    -0.9650     0.3710 ca         1 QN1      -0.107250
     33 C30          4.4770    -1.3010     0.3780 ca         1 QN1      -0.055750
     34 C31          5.2460    -1.1990    -0.8010 ca         1 QN1      -0.189300
     35 C11          6.7340    -1.5660    -0.7890 c3         1 QN1       0.357300
     36 F3           7.1810    -1.9560    -2.0050 f          1 QN1      -0.111833
     37 F2           7.4950    -0.5170    -0.4060 f          1 QN1      -0.111833
     38 F1           7.0030    -2.5820     0.0630 f          1 QN1      -0.111833
     39 C29          4.6260    -0.7300    -1.9800 ca         1 QN1      -0.055750
     40 C13          3.2620    -0.3960    -1.9840 ca         1 QN1      -0.107250
     41 S8           0.0590    -2.1890    -2.4020 sy         1 QN1       1.179100
     42 C26          0.7770    -3.0780    -1.0010 ca         1 QN1      -0.275000
     43 C17          2.0690    -3.6320    -1.0960 ca         1 QN1      -0.028500
     44 C1           2.6230    -4.3240    -0.0060 ca         1 QN1      -0.095250
     45 C4           1.8970    -4.4870     1.1960 ca         1 QN1      -0.100100
     46 C9           2.5280    -5.2330     2.3550 c          1 QN1       0.611200
     47 O1           3.6510    -5.7070     2.3020 o          1 QN1      -0.585600
     48 N2           1.8140    -5.3760     3.4950 nt         1 QN1      -0.600000
     49 C3           0.5910    -3.9450     1.2720 ca         1 QN1      -0.095250
     50 C19          0.0350    -3.2510     0.1840 ca         1 QN1      -0.028500
     51 O41         -1.3840    -2.4430    -2.3550 o          1 QN1      -0.535000
     52 O10          0.8560    -2.4600    -3.6040 o          1 QN1      -0.535000
     53 O2           1.6840     7.2330     2.1820 o          1 QN1      -0.585600
     54 HN11        -1.2020     7.6620     3.3000 hn         1 QN1       0.317750
     55 HN12         0.3040     8.3780     3.8320 hn         1 QN1       0.317750
     56 H2           1.4640     5.5470     0.2270 ha         1 QN1       0.132750
     57 H18          0.2530     4.0400    -1.3010 ha         1 QN1       0.138250
     58 H20         -3.4750     5.0390     0.6720 ha         1 QN1       0.138250
     59 H5          -2.2770     6.5400     2.1940 ha         1 QN1       0.132750
     60 H331        -0.6550     1.9510     0.4680 h1         1 QN1       0.066700
     61 H332        -2.2070     2.5030     1.0860 h1         1 QN1       0.066700
     62 H38         -3.9970     0.1480     0.5910 ha         1 QN1       0.124750
     63 H39         -4.3650    -1.9210     1.8920 ha         1 QN1       0.136250
     64 H36         -0.3550    -1.5990     3.5060 ha         1 QN1       0.136250
     65 H35          0.0010     0.4540     2.2000 ha         1 QN1       0.124750
     66 H24         -2.1390    -0.4110    -1.1550 h1         1 QN1       0.069200
     67 H251        -3.4150    -0.5940    -3.0870 h1         1 QN1       0.076700
     68 H252        -4.0290     1.0070    -2.6870 h1         1 QN1       0.076700
     69 HN22        -2.2810     1.9830    -3.9900 hn         1 QN1       0.425000
     70 H211        -1.1710    -0.7250    -4.3050 h1         1 QN1       0.076700
     71 H212        -0.3580     0.7860    -4.7150 h1         1 QN1       0.076700
     72 H23         -0.2120     1.5530    -2.4260 h1         1 QN1       0.069200
     73 H71          0.9480     0.8990    -0.6240 h1         1 QN1       0.066700
     74 H72          0.5200    -0.6560     0.0570 h1         1 QN1       0.066700
     75 H14          2.5350    -1.0630     1.2870 ha         1 QN1       0.124750
     76 H30          4.9320    -1.6450     1.3050 ha         1 QN1       0.136250
     77 H29          5.1980    -0.6240    -2.9000 ha         1 QN1       0.136250
     78 H13          2.8000    -0.0430    -2.9040 ha         1 QN1       0.124750
     79 H17          2.6570    -3.5130    -2.0040 ha         1 QN1       0.138250
     80 H1           3.6280    -4.7280    -0.0980 ha         1 QN1       0.132750
     81 HN21         0.8840    -4.9960     3.5670 hn         1 QN1       0.317750
     82 HN2A         2.2270    -5.8710     4.2710 hn         1 QN1       0.317750
     83 H3          -0.0080    -4.0540     2.1710 ha         1 QN1       0.132750
     84 H19         -0.9710    -2.8410     0.2690 ha         1 QN1       0.138250
@<TRIPOS>BOND
     1     1     2 1   
     2     1    54 1   
     3     1    55 1   
     4     2     3 1   
     5     2    53 2   
     6     3     4 ar  
     7     3     8 ar  
     8     4     5 ar  
     9     4    56 1   
    10     5     6 ar  
    11     5    57 1   
    12     6     7 ar  
    13     6     9 1   
    14     7     8 ar  
    15     7    58 1   
    16     8    59 1   
    17     9    10 2   
    18     9    11 2   
    19     9    12 1   
    20    12    13 1   
    21    12    24 1   
    22    13    14 1   
    23    13    60 1   
    24    13    61 1   
    25    14    15 ar  
    26    14    23 ar  
    27    15    16 ar  
    28    15    62 1   
    29    16    17 ar  
    30    16    63 1   
    31    17    18 1   
    32    17    22 ar  
    33    18    19 1   
    34    18    20 1   
    35    18    21 1   
    36    22    23 ar  
    37    22    64 1   
    38    23    65 1   
    39    24    25 1   
    40    24    28 1   
    41    24    66 1   
    42    25    26 1   
    43    25    67 1   
    44    25    68 1   
    45    26    27 1   
    46    26    69 1   
    47    27    28 1   
    48    27    70 1   
    49    27    71 1   
    50    28    29 1   
    51    28    72 1   
    52    29    30 1   
    53    29    41 1   
    54    30    31 1   
    55    30    73 1   
    56    30    74 1   
    57    31    32 ar  
    58    31    40 ar  
    59    32    33 ar  
    60    32    75 1   
    61    33    34 ar  
    62    33    76 1   
    63    34    35 1   
    64    34    39 ar  
    65    35    36 1   
    66    35    37 1   
    67    35    38 1   
    68    39    40 ar  
    69    39    77 1   
    70    40    78 1   
    71    41    42 1   
    72    41    51 2   
    73    41    52 2   
    74    42    43 ar  
    75    42    50 ar  
    76    43    44 ar  
    77    43    79 1   
    78    44    45 ar  
    79    44    80 1   
    80    45    46 1   
    81    45    49 ar  
    82    46    47 2   
    83    46    48 1   
    84    48    81 1   
    85    48    82 1   
    86    49    50 ar  
    87    49    83 1   
    88    50    84 1   
@<TRIPOS>SUBSTRUCTURE
     1 QN1         1 TEMP              0 ****  ****    0 ROOT
