@<TRIPOS>MOLECULE
QN2
   70    74     1     0     0
SMALL
bcc


@<TRIPOS>ATOM
      1 C1          -0.5520     5.4100    -1.1900 ca         1 QN2      -0.150750
      2 C17          0.5060     4.5790    -0.8640 ca         1 QN2      -0.034750
      3 C26          1.0320     3.7460    -1.8440 ca         1 QN2      -0.281500
      4 C19          0.5300     3.7330    -3.1370 ca         1 QN2      -0.034750
      5 C3          -0.5320     4.5730    -3.4500 ca         1 QN2      -0.150750
      6 C4          -1.0720     5.4050    -2.4810 ca         1 QN2      -0.074000
      7 S8           2.3650     2.6660    -1.3980 sy         1 QN2       1.315200
      8 N28          1.6800     1.7320    -0.2230 n3         1 QN2      -0.767500
      9 C7           2.3290     1.5750     1.0730 c3         1 QN2       0.268600
     10 C12          3.1170     0.3000     1.2210 ca         1 QN2      -0.092300
     11 C14          4.2850     0.1000     0.4900 ca         1 QN2      -0.122500
     12 C30          4.9950    -1.0850     0.5900 ca         1 QN2      -0.097000
     13 C31          4.5280    -2.0860     1.4340 ca         1 QN2       0.062900
     14 I2           5.5880    -3.8960     1.5780 i          1 QN2      -0.169400
     15 C29          3.3800    -1.9040     2.1860 ca         1 QN2      -0.097000
     16 C13          2.6840    -0.7060     2.0740 ca         1 QN2      -0.122500
     17 C23          0.6470     0.8170    -0.6890 c5         1 QN2       0.187000
     18 C24         -0.4810     0.5730     0.3290 c5         1 QN2       0.187000
     19 N32         -1.5110     1.5970     0.4350 n3         1 QN2      -0.767500
     20 S9          -1.6060     2.4540     1.8480 sy         1 QN2       1.315200
     21 O11         -2.8940     3.1330     1.8380 o          1 QN2      -0.612050
     22 C27         -1.6270     1.1620     3.0640 ca         1 QN2      -0.281500
     23 C18         -0.6270     1.1110     4.0250 ca         1 QN2      -0.034750
     24 C2          -0.6620     0.1020     4.9780 ca         1 QN2      -0.150750
     25 C6          -1.6880    -0.8320     4.9670 ca         1 QN2      -0.074000
     26 C5          -2.6890    -0.7620     4.0050 ca         1 QN2      -0.150750
     27 C20         -2.6650     0.2380     3.0470 ca         1 QN2      -0.034750
     28 O40         -0.4170     3.2620     2.0890 o          1 QN2      -0.612050
     29 C33         -2.1540     2.1480    -0.7540 c3         1 QN2       0.268600
     30 C34         -3.2450     1.2680    -1.3060 ca         1 QN2      -0.092300
     31 C38         -4.3410     0.9100    -0.5270 ca         1 QN2      -0.122500
     32 C39         -5.3430     0.1000    -1.0370 ca         1 QN2      -0.097000
     33 C37         -5.2500    -0.3510    -2.3480 ca         1 QN2       0.062900
     34 I1          -6.7650    -1.5840    -3.1280 i          1 QN2      -0.169400
     35 C36         -4.1760     0.0040    -3.1480 ca         1 QN2      -0.097000
     36 C35         -3.1800     0.8140    -2.6170 ca         1 QN2      -0.122500
     37 C25         -0.9700    -0.8310    -0.0550 c5         1 QN2       0.129300
     38 N22          0.2450    -1.5630    -0.3610 n7         1 QN2      -0.772200
     39 C21          1.0820    -0.6200    -1.0980 c5         1 QN2       0.129300
     40 O41          2.6870     1.8570    -2.5650 o          1 QN2      -0.612050
     41 O10          3.4270     3.4440    -0.7770 o          1 QN2      -0.612050
     42 H1          -0.9770     6.0590    -0.4360 ha         1 QN2       0.141750
     43 H17          0.8940     4.5690     0.1450 ha         1 QN2       0.158000
     44 H19          0.9460     3.0780    -3.8900 ha         1 QN2       0.158000
     45 H3          -0.9370     4.5690    -4.4530 ha         1 QN2       0.141750
     46 H4          -1.9040     6.0510    -2.7270 ha         1 QN2       0.138500
     47 H71          2.9790     2.4330     1.2330 h1         1 QN2       0.073450
     48 H72          1.5700     1.6420     1.8520 h1         1 QN2       0.073450
     49 H14          4.6560     0.8750    -0.1690 ha         1 QN2       0.138750
     50 H30          5.8990    -1.2170     0.0100 ha         1 QN2       0.148250
     51 H29          3.0160    -2.6720     2.8550 ha         1 QN2       0.148250
     52 H13          1.7960    -0.5670     2.6820 ha         1 QN2       0.138750
     53 H23          0.2020     1.2790    -1.5720 h1         1 QN2       0.062700
     54 H24         -0.0330     0.4600     1.3180 h1         1 QN2       0.062700
     55 H18          0.1720     1.8400     4.0420 ha         1 QN2       0.158000
     56 H2           0.1160     0.0490     5.7260 ha         1 QN2       0.141750
     57 H6          -1.7090    -1.6190     5.7090 ha         1 QN2       0.138500
     58 H5          -3.4900    -1.4890     3.9980 ha         1 QN2       0.141750
     59 H20         -3.4390     0.2790     2.2930 ha         1 QN2       0.158000
     60 H331        -2.5640     3.1300    -0.5180 h1         1 QN2       0.073450
     61 H332        -1.4080     2.3310    -1.5290 h1         1 QN2       0.073450
     62 H38         -4.4330     1.2730     0.4880 ha         1 QN2       0.138750
     63 H39         -6.1840    -0.1670    -0.4110 ha         1 QN2       0.148250
     64 H36         -4.0960    -0.3410    -4.1700 ha         1 QN2       0.148250
     65 H35         -2.3370     1.0820    -3.2430 ha         1 QN2       0.138750
     66 H251        -1.5340    -1.3020     0.7490 h1         1 QN2       0.072200
     67 H252        -1.6130    -0.7960    -0.9380 h1         1 QN2       0.072200
     68 HN22         0.7060    -1.8180     0.5050 hn         1 QN2       0.351800
     69 H211         0.9160    -0.7450    -2.1700 h1         1 QN2       0.072200
     70 H212         2.1360    -0.8070    -0.9130 h1         1 QN2       0.072200
@<TRIPOS>BOND
     1     1     2 ar  
     2     1     6 ar  
     3     1    42 1   
     4     2     3 ar  
     5     2    43 1   
     6     3     4 ar  
     7     3     7 1   
     8     4     5 ar  
     9     4    44 1   
    10     5     6 ar  
    11     5    45 1   
    12     6    46 1   
    13     7     8 1   
    14     7    40 2   
    15     7    41 2   
    16     8     9 1   
    17     8    17 1   
    18     9    10 1   
    19     9    47 1   
    20     9    48 1   
    21    10    11 ar  
    22    10    16 ar  
    23    11    12 ar  
    24    11    49 1   
    25    12    13 ar  
    26    12    50 1   
    27    13    14 1   
    28    13    15 ar  
    29    15    16 ar  
    30    15    51 1   
    31    16    52 1   
    32    17    18 1   
    33    17    39 1   
    34    17    53 1   
    35    18    19 1   
    36    18    37 1   
    37    18    54 1   
    38    19    20 1   
    39    19    29 1   
    40    20    21 2   
    41    20    22 1   
    42    20    28 2   
    43    22    23 ar  
    44    22    27 ar  
    45    23    24 ar  
    46    23    55 1   
    47    24    25 ar  
    48    24    56 1   
    49    25    26 ar  
    50    25    57 1   
    51    26    27 ar  
    52    26    58 1   
    53    27    59 1   
    54    29    30 1   
    55    29    60 1   
    56    29    61 1   
    57    30    31 ar  
    58    30    36 ar  
    59    31    32 ar  
    60    31    62 1   
    61    32    33 ar  
    62    32    63 1   
    63    33    34 1   
    64    33    35 ar  
    65    35    36 ar  
    66    35    64 1   
    67    36    65 1   
    68    37    38 1   
    69    37    66 1   
    70    37    67 1   
    71    38    39 1   
    72    38    68 1   
    73    39    69 1   
    74    39    70 1   
@<TRIPOS>SUBSTRUCTURE
     1 QN2         1 TEMP              0 ****  ****    0 ROOT
