@<TRIPOS>MOLECULE
QN2
   70    74     1     0     0
SMALL
No Charge or Current Charge


@<TRIPOS>ATOM
      1 C1          -0.7100     5.0910    -2.6780 ca         1 QN2      -0.132750
      2 C17          0.2330     4.5150    -1.8080 ca         1 QN2      -0.016750
      3 C26          1.0080     3.4180    -2.2360 ca         1 QN2      -0.281500
      4 C19          0.8320     2.8990    -3.5360 ca         1 QN2      -0.016750
      5 C3          -0.1100     3.4820    -4.4020 ca         1 QN2      -0.132750
      6 C4          -0.8790     4.5790    -3.9760 ca         1 QN2      -0.056000
      7 S8           2.2280     2.6990    -1.1220 sy         1 QN2       1.173600
      8 N28          1.2520     1.8850     0.0120 n3         1 QN2      -0.767500
      9 C7           1.9250     1.5850     1.3120 c3         1 QN2       0.268600
     10 C12          2.7980     0.3270     1.3690 ca         1 QN2      -0.092300
     11 C14          4.1050     0.3350     0.8370 ca         1 QN2      -0.104500
     12 C30          4.9080    -0.8180     0.8990 ca         1 QN2      -0.079000
     13 C31          4.4190    -1.9820     1.5100 ca         1 QN2       0.200000
     14 I2           5.6580    -3.7550     1.6090 i          1 QN2      -0.306500
     15 C29          3.1320    -1.9940     2.0680 ca         1 QN2      -0.079000
     16 C13          2.3270    -0.8430     2.0060 ca         1 QN2      -0.104500
     17 C23          0.1210     1.0160    -0.4900 c5         1 QN2       0.187000
     18 C24         -0.8550     0.5350     0.6430 c5         1 QN2       0.187000
     19 N32         -1.8950     1.5640     1.0470 n3         1 QN2      -0.767500
     20 S9          -1.8680     2.2430     2.6080 sy         1 QN2       1.173600
     21 O11         -3.2740     2.4710     2.9610 o          1 QN2      -0.541250
     22 C27         -1.3020     0.8770     3.6410 ca         1 QN2      -0.281500
     23 C18         -0.1240     0.9950     4.4080 ca         1 QN2      -0.016750
     24 C2           0.3170    -0.0900     5.1860 ca         1 QN2      -0.132750
     25 C6          -0.4150    -1.2890     5.2080 ca         1 QN2      -0.056000
     26 C5          -1.5960    -1.4030     4.4540 ca         1 QN2      -0.132750
     27 C20         -2.0430    -0.3220     3.6750 ca         1 QN2      -0.016750
     28 O40         -0.8750     3.3210     2.6110 o          1 QN2      -0.541250
     29 C33         -2.4800     2.4830     0.0330 c3         1 QN2       0.268600
     30 C34         -3.3390     1.7960    -1.0220 ca         1 QN2      -0.092300
     31 C38         -4.4860     1.0740    -0.6330 ca         1 QN2      -0.104500
     32 C39         -5.2790     0.4290    -1.5990 ca         1 QN2      -0.079000
     33 C37         -4.9320     0.5070    -2.9570 ca         1 QN2       0.200000
     34 I1          -6.1520    -0.4880    -4.4430 i          1 QN2      -0.306500
     35 C36         -3.7960     1.2300    -3.3530 ca         1 QN2      -0.079000
     36 C35         -3.0020     1.8740    -2.3880 ca         1 QN2      -0.104500
     37 C25         -1.4990    -0.6660    -0.1080 c5         1 QN2       0.129300
     38 N22         -0.3160    -1.4190    -0.6170 n7         1 QN2      -0.827400
     39 C21          0.6560    -0.3560    -1.0460 c5         1 QN2       0.129300
     40 O41          3.0250     1.6890    -1.8250 o          1 QN2      -0.541250
     41 O10          2.8440     3.8180    -0.4010 o          1 QN2      -0.541250
     42 H1          -1.3070     5.9370    -2.3460 ha         1 QN2       0.123750
     43 H17          0.3580     4.9200    -0.8050 ha         1 QN2       0.140000
     44 H19          1.4230     2.0520    -3.8820 ha         1 QN2       0.140000
     45 H3          -0.2430     3.0840    -5.4060 ha         1 QN2       0.123750
     46 H4          -1.6070     5.0280    -4.6480 ha         1 QN2       0.120500
     47 H71          2.5500     2.4330     1.6230 h1         1 QN2       0.073450
     48 H72          1.1760     1.5110     2.1050 h1         1 QN2       0.073450
     49 H14          4.5040     1.2340     0.3750 ha         1 QN2       0.120750
     50 H30          5.9110    -0.8080     0.4800 ha         1 QN2       0.130250
     51 H29          2.7630    -2.8930     2.5550 ha         1 QN2       0.130250
     52 H13          1.3420    -0.8670     2.4630 ha         1 QN2       0.120750
     53 H23         -0.4400     1.5100    -1.2900 h1         1 QN2       0.062700
     54 H24         -0.3110     0.1350     1.5010 h1         1 QN2       0.062700
     55 H18          0.4530     1.9180     4.4040 ha         1 QN2       0.140000
     56 H2           1.2280    -0.0000     5.7740 ha         1 QN2       0.123750
     57 H6          -0.0710    -2.1270     5.8100 ha         1 QN2       0.120500
     58 H5          -2.1650    -2.3290     4.4730 ha         1 QN2       0.123750
     59 H20         -2.9570    -0.4200     3.0890 ha         1 QN2       0.140000
     60 H331        -3.1380     3.2200     0.5130 h1         1 QN2       0.073450
     61 H332        -1.6920     3.0750    -0.4480 h1         1 QN2       0.073450
     62 H38         -4.7550     1.0070     0.4190 ha         1 QN2       0.120750
     63 H39         -6.1600    -0.1310    -1.2970 ha         1 QN2       0.130250
     64 H36         -3.5320     1.2890    -4.4050 ha         1 QN2       0.130250
     65 H35         -2.1230     2.4290    -2.7030 ha         1 QN2       0.120750
     66 H251        -2.1260    -1.2780     0.5540 h1         1 QN2       0.072200
     67 H252        -2.1200    -0.3490    -0.9540 h1         1 QN2       0.072200
     68 HN22         0.1010    -1.9320     0.1710 hn         1 QN2       0.407000
     69 H211         0.7130    -0.3060    -2.1430 h1         1 QN2       0.072200
     70 H212         1.6680    -0.5960    -0.6980 h1         1 QN2       0.072200
@<TRIPOS>BOND
     1     1     2 ar  
     2     1     6 ar  
     3     1    42 1   
     4     2     3 ar  
     5     2    43 1   
     6     3     4 ar  
     7     3     7 1   
     8     4     5 ar  
     9     4    44 1   
    10     5     6 ar  
    11     5    45 1   
    12     6    46 1   
    13     7     8 1   
    14     7    40 2   
    15     7    41 2   
    16     8     9 1   
    17     8    17 1   
    18     9    10 1   
    19     9    47 1   
    20     9    48 1   
    21    10    11 ar  
    22    10    16 ar  
    23    11    12 ar  
    24    11    49 1   
    25    12    13 ar  
    26    12    50 1   
    27    13    14 1   
    28    13    15 ar  
    29    15    16 ar  
    30    15    51 1   
    31    16    52 1   
    32    17    18 1   
    33    17    39 1   
    34    17    53 1   
    35    18    19 1   
    36    18    37 1   
    37    18    54 1   
    38    19    20 1   
    39    19    29 1   
    40    20    21 2   
    41    20    22 1   
    42    20    28 2   
    43    22    23 ar  
    44    22    27 ar  
    45    23    24 ar  
    46    23    55 1   
    47    24    25 ar  
    48    24    56 1   
    49    25    26 ar  
    50    25    57 1   
    51    26    27 ar  
    52    26    58 1   
    53    27    59 1   
    54    29    30 1   
    55    29    60 1   
    56    29    61 1   
    57    30    31 ar  
    58    30    36 ar  
    59    31    32 ar  
    60    31    62 1   
    61    32    33 ar  
    62    32    63 1   
    63    33    34 1   
    64    33    35 ar  
    65    35    36 ar  
    66    35    64 1   
    67    36    65 1   
    68    37    38 1   
    69    37    66 1   
    70    37    67 1   
    71    38    39 1   
    72    38    68 1   
    73    39    69 1   
    74    39    70 1   
@<TRIPOS>SUBSTRUCTURE
     1 QN2         1 TEMP              0 ****  ****    0 ROOT
