@<TRIPOS>MOLECULE
QN3
   70    74     1     0     0
SMALL
No Charge or Current Charge


@<TRIPOS>ATOM
      1 C2           0.9250    -3.1050    -2.5940 ca         1 QN3      -0.134000
      2 C6           0.9630    -4.3520    -1.9540 ca         1 QN3      -0.050500
      3 C5           1.6600    -4.4920    -0.7430 ca         1 QN3      -0.125000
      4 C20          2.3170    -3.3930    -0.1640 ca         1 QN3       0.211500
      5 C27          2.2710    -2.1320    -0.8020 ca         1 QN3      -0.275500
      6 S9           3.0630    -0.6770    -0.0890 sy         1 QN3       1.192100
      7 N32          2.2650    -0.4830     1.4050 n3         1 QN3      -0.783500
      8 C24          0.7970    -0.8360     1.5500 c5         1 QN3       0.203000
      9 C23         -0.1240     0.4350     1.3610 c5         1 QN3       0.203000
     10 N28         -0.9760     0.4130     0.1040 n3         1 QN3      -0.783500
     11 S8          -1.8160     1.8520    -0.2820 sy         1 QN3       1.192100
     12 O10         -2.9360     1.9620     0.6570 o          1 QN3      -0.538750
     13 O41         -0.7910     2.8980    -0.3700 o          1 QN3      -0.538750
     14 C26         -2.4490     1.5900    -1.9520 ca         1 QN3      -0.275500
     15 C19         -3.8470     1.5120    -2.1450 ca         1 QN3      -0.015000
     16 C3          -4.3770     1.3000    -3.4290 ca         1 QN3      -0.134000
     17 C4          -3.5200     1.1670    -4.5320 ca         1 QN3      -0.050500
     18 C1          -2.1310     1.2460    -4.3470 ca         1 QN3      -0.125000
     19 C17         -1.5890     1.4580    -3.0670 ca         1 QN3       0.211500
     20 Cl1          0.1680     1.5210    -2.9410 cl         1 QN3      -0.164500
     21 C7          -1.5550    -0.8660    -0.4220 c3         1 QN3       0.274600
     22 C12         -2.4760    -1.6540     0.5120 ca         1 QN3      -0.116800
     23 C13         -2.0440    -2.8770     1.0690 ca         1 QN3      -0.101500
     24 C29         -2.8880    -3.6110     1.9200 ca         1 QN3      -0.107500
     25 C31         -4.1790    -3.1400     2.2090 ca         1 QN3      -0.098000
     26 C30         -4.6290    -1.9400     1.6360 ca         1 QN3      -0.107500
     27 C14         -3.7850    -1.2050     0.7850 ca         1 QN3      -0.101500
     28 C21         -1.0310     0.3940     2.6410 c5         1 QN3       0.127300
     29 N22         -0.1520    -0.1480     3.7100 n7         1 QN3      -0.834400
     30 C25          0.5050    -1.2970     3.0260 c5         1 QN3       0.127300
     31 C33          2.9630     0.4000     2.3890 c3         1 QN3       0.274600
     32 C34          2.9670     1.9060     2.0950 ca         1 QN3      -0.116800
     33 C35          3.9270     2.4630     1.2230 ca         1 QN3      -0.101500
     34 C36          3.9550     3.8470     0.9780 ca         1 QN3      -0.107500
     35 C37          3.0350     4.6940     1.6170 ca         1 QN3      -0.098000
     36 C39          2.0960     4.1560     2.5110 ca         1 QN3      -0.107500
     37 C38          2.0690     2.7720     2.7570 ca         1 QN3      -0.101500
     38 O11          4.4410    -1.0660     0.2330 o          1 QN3      -0.538750
     39 O40          2.7660     0.4990    -0.9110 o          1 QN3      -0.538750
     40 C18          1.5770    -2.0000    -2.0250 ca         1 QN3      -0.015000
     41 Cl3          3.1400    -3.6650     1.3740 cl         1 QN3      -0.164500
     42 H2           0.3890    -2.9930    -3.5340 ha         1 QN3       0.124000
     43 H6           0.4560    -5.2090    -2.3950 ha         1 QN3       0.121500
     44 H5           1.6880    -5.4580    -0.2470 ha         1 QN3       0.133500
     45 H24          0.5210    -1.6600     0.8920 h1         1 QN3       0.085200
     46 H23          0.4890     1.3420     1.3750 h1         1 QN3       0.085200
     47 H19         -4.5340     1.6150    -1.3060 ha         1 QN3       0.146000
     48 H3          -5.4540     1.2410    -3.5690 ha         1 QN3       0.124000
     49 H4          -3.9310     1.0020    -5.5260 ha         1 QN3       0.121500
     50 H1          -1.4670     1.1400    -5.2010 ha         1 QN3       0.133500
     51 H71         -2.1040    -0.7160    -1.3570 h1         1 QN3       0.065200
     52 H72         -0.7380    -1.5320    -0.7210 h1         1 QN3       0.065200
     53 H13         -1.0560    -3.2680     0.8420 ha         1 QN3       0.117500
     54 H29         -2.5430    -4.5480     2.3510 ha         1 QN3       0.115750
     55 H31         -4.8320    -3.7090     2.8660 ha         1 QN3       0.115500
     56 H30         -5.6340    -1.5810     1.8470 ha         1 QN3       0.115750
     57 H14         -4.1550    -0.2880     0.3380 ha         1 QN3       0.117500
     58 H211        -1.4150     1.3910     2.8990 h1         1 QN3       0.070200
     59 H212        -1.9000    -0.2600     2.5110 h1         1 QN3       0.070200
     60 HN22         0.5630     0.5510     3.9370 hn         1 QN3       0.407000
     61 H251        -0.1860    -2.1510     3.0070 h1         1 QN3       0.070200
     62 H252         1.4060    -1.6430     3.5520 h1         1 QN3       0.070200
     63 H331         2.5580     0.2580     3.3970 h1         1 QN3       0.065200
     64 H332         4.0120     0.0840     2.4770 h1         1 QN3       0.065200
     65 H35          4.6570     1.8250     0.7320 ha         1 QN3       0.117500
     66 H36          4.6920     4.2630     0.2950 ha         1 QN3       0.115750
     67 H37          3.0570     5.7650     1.4270 ha         1 QN3       0.115500
     68 H39          1.3920     4.8120     3.0180 ha         1 QN3       0.115750
     69 H38          1.3460     2.3780     3.4650 ha         1 QN3       0.117500
     70 H18          1.5330    -1.0410    -2.5380 ha         1 QN3       0.146000
@<TRIPOS>BOND
     1     1     2 ar  
     2     1    40 ar  
     3     1    42 1   
     4     2     3 ar  
     5     2    43 1   
     6     3     4 ar  
     7     3    44 1   
     8     4     5 ar  
     9     4    41 1   
    10     5     6 1   
    11     5    40 ar  
    12     6     7 1   
    13     6    38 2   
    14     6    39 2   
    15     7     8 1   
    16     7    31 1   
    17     8     9 1   
    18     8    30 1   
    19     8    45 1   
    20     9    10 1   
    21     9    28 1   
    22     9    46 1   
    23    10    11 1   
    24    10    21 1   
    25    11    12 2   
    26    11    13 2   
    27    11    14 1   
    28    14    15 ar  
    29    14    19 ar  
    30    15    16 ar  
    31    15    47 1   
    32    16    17 ar  
    33    16    48 1   
    34    17    18 ar  
    35    17    49 1   
    36    18    19 ar  
    37    18    50 1   
    38    19    20 1   
    39    21    22 1   
    40    21    51 1   
    41    21    52 1   
    42    22    23 ar  
    43    22    27 ar  
    44    23    24 ar  
    45    23    53 1   
    46    24    25 ar  
    47    24    54 1   
    48    25    26 ar  
    49    25    55 1   
    50    26    27 ar  
    51    26    56 1   
    52    27    57 1   
    53    28    29 1   
    54    28    58 1   
    55    28    59 1   
    56    29    30 1   
    57    29    60 1   
    58    30    61 1   
    59    30    62 1   
    60    31    32 1   
    61    31    63 1   
    62    31    64 1   
    63    32    33 ar  
    64    32    37 ar  
    65    33    34 ar  
    66    33    65 1   
    67    34    35 ar  
    68    34    66 1   
    69    35    36 ar  
    70    35    67 1   
    71    36    37 ar  
    72    36    68 1   
    73    37    69 1   
    74    40    70 1   
@<TRIPOS>SUBSTRUCTURE
     1 QN3         1 TEMP              0 ****  ****    0 ROOT
