@<TRIPOS>MOLECULE
QN3
   70    74     1     0     0
SMALL
bcc


@<TRIPOS>ATOM
      1 C2           0.9080    -4.6540    -1.5710 ca         1 QN3      -0.152000
      2 C6           1.4370    -5.4770    -0.5890 ca         1 QN3      -0.068500
      3 C5           2.2400    -4.9470     0.4100 ca         1 QN3      -0.143000
      4 C20          2.5100    -3.5880     0.4290 ca         1 QN3       0.119900
      5 C27          1.9630    -2.7500    -0.5410 ca         1 QN3      -0.275500
      6 S9           2.2840    -0.9950    -0.5940 sy         1 QN3       1.333700
      7 N32          1.8050    -0.4480     0.8740 n3         1 QN3      -0.783500
      8 C24          0.4080    -0.6680     1.2400 c5         1 QN3       0.203000
      9 C23         -0.4760     0.6110     1.2220 c5         1 QN3       0.203000
     10 N28         -1.5510     0.5820     0.2200 n3         1 QN3      -0.783500
     11 S8          -2.4170     1.9490    -0.0470 sy         1 QN3       1.333700
     12 O10         -3.8330     1.7010     0.1930 o          1 QN3      -0.609550
     13 O41         -1.7770     3.0300     0.6800 o          1 QN3      -0.609550
     14 C26         -2.2770     2.2420    -1.8000 ca         1 QN3      -0.275500
     15 C19         -3.4310     2.1640    -2.5730 ca         1 QN3      -0.033000
     16 C3          -3.3760     2.4070    -3.9360 ca         1 QN3      -0.152000
     17 C4          -2.1670     2.7320    -4.5300 ca         1 QN3      -0.068500
     18 C1          -1.0120     2.8160    -3.7670 ca         1 QN3      -0.143000
     19 C17         -1.0640     2.5720    -2.4030 ca         1 QN3       0.119900
     20 CL1          0.3930     2.6920    -1.4980 cl         1 QN3      -0.072900
     21 C7          -2.0100    -0.6330    -0.4420 c3         1 QN3       0.274600
     22 C12         -2.5360    -1.7080     0.4810 ca         1 QN3      -0.116800
     23 C13         -2.0620    -3.0090     0.3450 ca         1 QN3      -0.119500
     24 C29         -2.5160    -4.0260     1.1750 ca         1 QN3      -0.125500
     25 C31         -3.4600    -3.7480     2.1530 ca         1 QN3      -0.116000
     26 C30         -3.9520    -2.4550     2.2850 ca         1 QN3      -0.125500
     27 C14         -3.4960    -1.4420     1.4540 ca         1 QN3      -0.119500
     28 C21         -0.9860     0.7440     2.6810 c5         1 QN3       0.127300
     29 N22         -0.1560    -0.0990     3.5200 n7         1 QN3      -0.779200
     30 C25          0.2330    -1.2100     2.6730 c5         1 QN3       0.127300
     31 C33          2.7220     0.2920     1.7350 c3         1 QN3       0.274600
     32 C34          2.6430     1.7940     1.6010 ca         1 QN3      -0.116800
     33 C35          3.0440     2.4280     0.4260 ca         1 QN3      -0.119500
     34 C36          2.9730     3.8070     0.3090 ca         1 QN3      -0.125500
     35 C37          2.5000     4.5770     1.3650 ca         1 QN3      -0.116000
     36 C39          2.1120     3.9580     2.5430 ca         1 QN3      -0.125500
     37 C38          2.1870     2.5750     2.6570 ca         1 QN3      -0.119500
     38 O11          3.7180    -0.7860    -0.7100 o          1 QN3      -0.609550
     39 O40          1.4150    -0.4670    -1.6330 o          1 QN3      -0.609550
     40 C18          1.1690    -3.2940    -1.5450 ca         1 QN3      -0.033000
     41 CL3          3.5340    -2.9860     1.6790 cl         1 QN3      -0.072900
     42 H2           0.2890    -5.0650    -2.3570 ha         1 QN3       0.142000
     43 H6           1.2320    -6.5390    -0.5970 ha         1 QN3       0.139500
     44 H5           2.6600    -5.5890     1.1710 ha         1 QN3       0.151500
     45 H24          0.0290    -1.4240     0.5550 h1         1 QN3       0.085200
     46 H23          0.1650     1.4570     0.9910 h1         1 QN3       0.085200
     47 H19         -4.3740     1.9090    -2.1120 ha         1 QN3       0.164000
     48 H3          -4.2790     2.3430    -4.5280 ha         1 QN3       0.142000
     49 H4          -2.1150     2.9230    -5.5930 ha         1 QN3       0.139500
     50 H1          -0.0690     3.0720    -4.2290 ha         1 QN3       0.151500
     51 H71         -2.7910    -0.3690    -1.1590 h1         1 QN3       0.065200
     52 H72         -1.1980    -1.0340    -1.0520 h1         1 QN3       0.065200
     53 H13         -1.3240    -3.2330    -0.4170 ha         1 QN3       0.135500
     54 H29         -2.1280    -5.0290     1.0590 ha         1 QN3       0.133750
     55 H31         -3.8130    -4.5340     2.8090 ha         1 QN3       0.133500
     56 H30         -4.6950    -2.2350     3.0400 ha         1 QN3       0.133750
     57 H14         -3.8940    -0.4420     1.5650 ha         1 QN3       0.135500
     58 H211        -0.9540     1.7760     3.0250 h1         1 QN3       0.070200
     59 H212        -2.0250     0.4100     2.7390 h1         1 QN3       0.070200
     60 HN22         0.6600     0.4080     3.8340 hn         1 QN3       0.351800
     61 H251        -0.5770    -1.9440     2.6550 h1         1 QN3       0.070200
     62 H252         1.1210    -1.7190     3.0490 h1         1 QN3       0.070200
     63 H331         2.5260    -0.0030     2.7670 h1         1 QN3       0.065200
     64 H332         3.7370    -0.0430     1.5300 h1         1 QN3       0.065200
     65 H35          3.4290     1.8470    -0.4030 ha         1 QN3       0.135500
     66 H36          3.2930     4.2840    -0.6090 ha         1 QN3       0.133750
     67 H37          2.4430     5.6540     1.2700 ha         1 QN3       0.133500
     68 H39          1.7520     4.5460     3.3770 ha         1 QN3       0.133750
     69 H38          1.8960     2.1070     3.5900 ha         1 QN3       0.135500
     70 H18          0.7490    -2.6560    -2.3100 ha         1 QN3       0.164000
@<TRIPOS>BOND
     1     1     2 ar  
     2     1    40 ar  
     3     1    42 1   
     4     2     3 ar  
     5     2    43 1   
     6     3     4 ar  
     7     3    44 1   
     8     4     5 ar  
     9     4    41 1   
    10     5     6 1   
    11     5    40 ar  
    12     6     7 1   
    13     6    38 2   
    14     6    39 2   
    15     7     8 1   
    16     7    31 1   
    17     8     9 1   
    18     8    30 1   
    19     8    45 1   
    20     9    10 1   
    21     9    28 1   
    22     9    46 1   
    23    10    11 1   
    24    10    21 1   
    25    11    12 2   
    26    11    13 2   
    27    11    14 1   
    28    14    15 ar  
    29    14    19 ar  
    30    15    16 ar  
    31    15    47 1   
    32    16    17 ar  
    33    16    48 1   
    34    17    18 ar  
    35    17    49 1   
    36    18    19 ar  
    37    18    50 1   
    38    19    20 1   
    39    21    22 1   
    40    21    51 1   
    41    21    52 1   
    42    22    23 ar  
    43    22    27 ar  
    44    23    24 ar  
    45    23    53 1   
    46    24    25 ar  
    47    24    54 1   
    48    25    26 ar  
    49    25    55 1   
    50    26    27 ar  
    51    26    56 1   
    52    27    57 1   
    53    28    29 1   
    54    28    58 1   
    55    28    59 1   
    56    29    30 1   
    57    29    60 1   
    58    30    61 1   
    59    30    62 1   
    60    31    32 1   
    61    31    63 1   
    62    31    64 1   
    63    32    33 ar  
    64    32    37 ar  
    65    33    34 ar  
    66    33    65 1   
    67    34    35 ar  
    68    34    66 1   
    69    35    36 ar  
    70    35    67 1   
    71    36    37 ar  
    72    36    68 1   
    73    37    69 1   
    74    40    70 1   
@<TRIPOS>SUBSTRUCTURE
     1 QN3         1 TEMP              0 ****  ****    0 ROOT
