@<TRIPOS>MOLECULE
QN4
   36    37     1     0     0
SMALL
No Charge or Current Charge


@<TRIPOS>ATOM
      1 C8         -49.6840   -57.7760   -25.2140 cc         1 QN4      -0.234600
      2 C7         -49.8170   -59.1390   -24.7930 cc         1 QN4       0.356500
      3 C6         -50.8090   -60.9510   -27.7640 c3         1 QN4       0.019000
      4 C5         -49.6960   -61.4560   -28.6980 c          1 QN4       0.604100
      5 C4         -49.4160   -63.2540   -30.5220 ca         1 QN4      -0.041000
      6 C3         -48.0950   -62.9870   -30.9340 ca         1 QN4      -0.071000
      7 C2         -47.4930   -63.7750   -31.9270 ca         1 QN4      -0.113000
      8 C1         -48.1830   -64.8420   -32.5350 ca         1 QN4       0.015700
      9 C12        -49.5210   -65.1120   -32.1350 ca         1 QN4      -0.235500
     10 C11        -50.1140   -64.3140   -31.1280 ca         1 QN4      -0.082000
     11 C9         -49.9400   -57.4520   -26.5260 cd         1 QN4       0.012800
     12 N          -50.0970   -62.5030   -29.5200 ns         1 QN4      -0.141000
     13 C          -47.4460   -65.6570   -33.5950 c3         1 QN4      -0.069800
     14 O          -48.5650   -60.9770   -28.6990 o          1 QN4      -0.564100
     15 C10        -50.3480   -58.5060   -27.4920 c          1 QN4       0.542200
     16 N1         -50.4240   -59.8030   -26.9020 n          1 QN4      -0.114800
     17 N2         -50.1730   -60.1640   -25.5690 nd         1 QN4      -0.411300
     18 N3         -49.8940   -67.7990   -32.1710 n8         1 QN4      -1.012100
     19 O1         -50.6000   -58.2950   -28.6750 o          1 QN4      -0.512000
     20 O2         -50.2190   -66.6340   -34.2750 o          1 QN4      -0.547000
     21 O3         -51.8850   -66.4190   -32.3550 o          1 QN4      -0.547000
     22 S          -50.5120   -66.4530   -32.8550 sy         1 QN4       1.126600
     23 Cl         -49.8050   -55.8210   -27.1190 cl         1 QN4      -0.122000
     24 H9         -49.3860   -57.0290   -24.4870 ha         1 QN4       0.212000
     25 H8         -49.6250   -59.4240   -23.7670 h4         1 QN4       0.052800
     26 H7         -51.6670   -60.6670   -28.3860 h1         1 QN4       0.088700
     27 H6         -51.1250   -61.7960   -27.1400 h1         1 QN4       0.088700
     28 H4         -47.5170   -62.1760   -30.5040 ha         1 QN4       0.152000
     29 H3         -46.4710   -63.5500   -32.2250 ha         1 QN4       0.119000
     30 H10        -51.1350   -64.5170   -30.8100 ha         1 QN4       0.137000
     31 H5         -51.0590   -62.7870   -29.3850 hn         1 QN4       0.156000
     32 H          -47.8490   -65.4640   -34.5950 hc         1 QN4       0.061367
     33 H2         -46.3790   -65.4090   -33.6270 hc         1 QN4       0.061367
     34 H1         -47.5110   -66.7330   -33.3970 hc         1 QN4       0.061367
     35 H12        -50.7280   -68.1730   -31.7250 hn         1 QN4       0.476000
     36 H11        -49.8040   -68.3950   -32.9900 hn         1 QN4       0.476000
@<TRIPOS>BOND
     1     1     2 1   
     2     1    11 2   
     3     1    24 1   
     4     2    17 2   
     5     2    25 1   
     6     3     4 1   
     7     3    16 1   
     8     3    26 1   
     9     3    27 1   
    10     4    12 1   
    11     4    14 2   
    12     5     6 ar  
    13     5    10 ar  
    14     5    12 1   
    15     6     7 ar  
    16     6    28 1   
    17     7     8 ar  
    18     7    29 1   
    19     8     9 ar  
    20     8    13 1   
    21     9    10 ar  
    22     9    22 1   
    23    10    30 1   
    24    11    15 1   
    25    11    23 1   
    26    12    31 1   
    27    13    32 1   
    28    13    33 1   
    29    13    34 1   
    30    15    16 1   
    31    15    19 2   
    32    16    17 1   
    33    18    22 1   
    34    18    35 1   
    35    18    36 1   
    36    20    22 2   
    37    21    22 2   
@<TRIPOS>SUBSTRUCTURE
     1 QN4         1 TEMP              0 ****  ****    0 ROOT
