@<TRIPOS>MOLECULE
QN4
   36    37     1     0     0
SMALL
abcg2


@<TRIPOS>ATOM
      1 C8         -49.6400   -57.7080   -25.6690 cc         1 QN4      -0.234600
      2 C7         -49.7110   -58.9540   -24.9940 cc         1 QN4       0.356500
      3 C6         -50.7750   -61.2520   -27.4690 c3         1 QN4       0.019000
      4 C5         -49.7000   -61.7140   -28.4450 c          1 QN4       0.604100
      5 C4         -49.4580   -63.2900   -30.3450 ca         1 QN4      -0.041000
      6 C3         -48.1100   -63.1010   -30.6370 ca         1 QN4      -0.071000
      7 C2         -47.5160   -63.8440   -31.6450 ca         1 QN4      -0.113000
      8 C1         -48.2000   -64.7850   -32.4060 ca         1 QN4       0.015700
      9 C12        -49.5530   -64.9560   -32.0870 ca         1 QN4      -0.235500
     10 C11        -50.1720   -64.2310   -31.0830 ca         1 QN4      -0.082000
     11 C9         -49.9620   -57.6800   -26.9780 cd         1 QN4       0.012800
     12 N          -50.1650   -62.5930   -29.3610 ns         1 QN4      -0.141000
     13 C          -47.4750   -65.5250   -33.4900 c3         1 QN4      -0.069800
     14 O          -48.5500   -61.3400   -28.3500 o          1 QN4      -0.564100
     15 C10        -50.3650   -58.8890   -27.6720 c          1 QN4       0.542200
     16 N1         -50.3990   -60.0000   -26.8580 n          1 QN4      -0.114800
     17 N2         -50.0720   -60.0500   -25.5730 nd         1 QN4      -0.411300
     18 N3         -49.8870   -67.5460   -32.5940 n8         1 QN4      -1.012100
     19 O1         -50.6610   -58.9600   -28.8530 o          1 QN4      -0.512000
     20 O2         -50.3750   -65.9250   -34.4190 o          1 QN4      -0.547000
     21 O3         -51.9330   -65.9810   -32.4720 o          1 QN4      -0.547000
     22 S          -50.5750   -66.0990   -32.9880 sy         1 QN4       1.126600
     23 CL         -49.9120   -56.2530   -27.9160 cl         1 QN4      -0.122000
     24 H9         -49.3330   -56.8200   -25.1350 ha         1 QN4       0.212000
     25 H8         -49.4590   -59.0290   -23.9460 h4         1 QN4       0.052800
     26 H7         -51.7470   -61.1590   -27.9550 h1         1 QN4       0.088700
     27 H6         -50.8690   -61.9900   -26.6730 h1         1 QN4       0.088700
     28 H4         -47.5150   -62.3840   -30.0970 ha         1 QN4       0.152000
     29 H3         -46.4660   -63.6780   -31.8510 ha         1 QN4       0.119000
     30 H10        -51.2200   -64.3930   -30.8650 ha         1 QN4       0.137000
     31 H5         -51.1520   -62.8040   -29.3200 hn         1 QN4       0.156000
     32 H          -47.8150   -65.2210   -34.4790 hc         1 QN4       0.061367
     33 H2         -46.4080   -65.3200   -33.4280 hc         1 QN4       0.061367
     34 H1         -47.6160   -66.6020   -33.4150 hc         1 QN4       0.061367
     35 H12        -50.1580   -67.8790   -31.6750 hn         1 QN4       0.476000
     36 H11        -50.0660   -68.2520   -33.3010 hn         1 QN4       0.476000
@<TRIPOS>BOND
     1     1     2 1   
     2     1    11 2   
     3     1    24 1   
     4     2    17 2   
     5     2    25 1   
     6     3     4 1   
     7     3    16 1   
     8     3    26 1   
     9     3    27 1   
    10     4    12 1   
    11     4    14 2   
    12     5     6 ar  
    13     5    10 ar  
    14     5    12 1   
    15     6     7 ar  
    16     6    28 1   
    17     7     8 ar  
    18     7    29 1   
    19     8     9 ar  
    20     8    13 1   
    21     9    10 ar  
    22     9    22 1   
    23    10    30 1   
    24    11    15 1   
    25    11    23 1   
    26    12    31 1   
    27    13    32 1   
    28    13    33 1   
    29    13    34 1   
    30    15    16 1   
    31    15    19 2   
    32    16    17 1   
    33    18    22 1   
    34    18    35 1   
    35    18    36 1   
    36    20    22 2   
    37    21    22 2   
@<TRIPOS>SUBSTRUCTURE
     1 QN4         1 TEMP              0 ****  ****    0 ROOT
