@<TRIPOS>MOLECULE
QN5
   24    25     1     0     0
SMALL
No Charge or Current Charge


@<TRIPOS>ATOM
      1 C10          6.9580     9.0730    30.7450 ca         1 QN5      -0.155000
      2 C13          6.0580     9.5870    31.7020 ca         1 QN5      -0.105000
      3 C04          6.5300     5.4930    30.8890 cc         1 QN5      -0.028400
      4 C05          6.2320     6.8380    31.3020 ca         1 QN5      -0.089800
      5 C06          7.5070     5.6110    29.9000 cd         1 QN5      -0.098300
      6 C07          7.0170     7.6840    30.5710 ca         1 QN5      -0.044200
      7 C08          5.9090     4.2280    31.4350 c3         1 QN5      -0.162200
      8 C09          5.3250     7.3150    32.2600 ca         1 QN5      -0.030000
      9 C11          8.1830     4.5100    29.1240 c3         1 QN5      -0.017900
     10 C12          5.2440     8.7100    32.4570 ca         1 QN5      -0.176000
     11 C14          4.5660     3.9040    30.7560 c          1 QN5       0.723000
     12 N03          7.8170     6.9760    29.6960 na         1 QN5      -0.239700
     13 O01          4.5850     3.2560    29.7200 o          1 QN5      -0.730000
     14 O02          3.5500     4.3980    31.2220 o          1 QN5      -0.730000
     15 H101         7.5870     9.7390    30.1580 ha         1 QN5       0.091000
     16 H131         5.9890    10.6610    31.8590 ha         1 QN5       0.086000
     17 H082         6.6240     3.4210    31.2390 hc         1 QN5       0.026200
     18 H081         5.7520     4.4000    32.5060 hc         1 QN5       0.026200
     19 H091         4.7010     6.6320    32.8330 ha         1 QN5       0.130000
     20 H112         8.8300     4.9110    28.3350 hc         1 QN5       0.035033
     21 H111         8.8030     3.8910    29.7830 hc         1 QN5       0.035033
     22 H113         7.4440     3.8560    28.6470 hc         1 QN5       0.035033
     23 H121         4.5510     9.1130    33.1920 ha         1 QN5       0.094000
     24 H031         8.4910     7.3570    29.0410 hn         1 QN5       0.326000
@<TRIPOS>BOND
     1     1     2 ar  
     2     1     6 ar  
     3     1    15 1   
     4     2    10 ar  
     5     2    16 1   
     6     3     4 1   
     7     3     5 2   
     8     3     7 1   
     9     4     6 ar  
    10     4     8 ar  
    11     5     9 1   
    12     5    12 1   
    13     6    12 1   
    14     7    11 1   
    15     7    17 1   
    16     7    18 1   
    17     8    10 ar  
    18     8    19 1   
    19     9    20 1   
    20     9    21 1   
    21     9    22 1   
    22    10    23 1   
    23    11    13 1   
    24    11    14 1   
    25    12    24 1   
@<TRIPOS>SUBSTRUCTURE
     1 QN5         1 TEMP              0 ****  ****    0 ROOT
