@<TRIPOS>MOLECULE
QN5
   24    25     1     0     0
SMALL
bcc


@<TRIPOS>ATOM
      1 C10          6.9310     9.0800    30.6350 ca         1 QN5      -0.173000
      2 C13          6.0370     9.5840    31.5650 ca         1 QN5      -0.123000
      3 C04          6.5630     5.4820    30.9040 cc         1 QN5      -0.028400
      4 C05          6.2260     6.8210    31.2870 ca         1 QN5      -0.089800
      5 C06          7.5180     5.5900    29.9270 cd         1 QN5      -0.098300
      6 C07          7.0130     7.6960    30.5050 ca         1 QN5      -0.044200
      7 C08          5.9490     4.2530    31.4770 c3         1 QN5      -0.162200
      8 C09          5.3300     7.3580    32.2160 ca         1 QN5      -0.048000
      9 C11          8.2090     4.5340    29.1420 c3         1 QN5      -0.017900
     10 C12          5.2430     8.7320    32.3490 ca         1 QN5      -0.194000
     11 C14          4.5290     3.9300    30.9400 c          1 QN5       0.933600
     12 N03          7.7820     6.9200    29.6910 na         1 QN5      -0.189400
     13 O01          4.3200     4.1600    29.7340 o          1 QN5      -0.835300
     14 O02          3.7300     3.4360    31.7600 o          1 QN5      -0.835300
     15 H101         7.5410     9.7410    30.0310 ha         1 QN5       0.109000
     16 H131         5.9490    10.6550    31.6890 ha         1 QN5       0.104000
     17 H082         6.5800     3.3850    31.2560 hc         1 QN5       0.026200
     18 H081         5.9180     4.3250    32.5680 hc         1 QN5       0.026200
     19 H091         4.7120     6.7050    32.8210 ha         1 QN5       0.148000
     20 H112         9.2890     4.6860    29.1250 hc         1 QN5       0.035033
     21 H111         8.0170     3.5500    29.5650 hc         1 QN5       0.035033
     22 H113         7.8670     4.5180    28.1040 hc         1 QN5       0.035033
     23 H121         4.5530     9.1600    33.0650 ha         1 QN5       0.112000
     24 H031         8.4470     7.2630    29.0170 hn         1 QN5       0.275700
@<TRIPOS>BOND
     1     1     2 ar  
     2     1     6 ar  
     3     1    15 1   
     4     2    10 ar  
     5     2    16 1   
     6     3     4 1   
     7     3     5 2   
     8     3     7 1   
     9     4     6 ar  
    10     4     8 ar  
    11     5     9 1   
    12     5    12 1   
    13     6    12 1   
    14     7    11 1   
    15     7    17 1   
    16     7    18 1   
    17     8    10 ar  
    18     8    19 1   
    19     9    20 1   
    20     9    21 1   
    21     9    22 1   
    22    10    23 1   
    23    11    13 1   
    24    11    14 1   
    25    12    24 1   
@<TRIPOS>SUBSTRUCTURE
     1 QN5         1 TEMP              0 ****  ****    0 ROOT
