@<TRIPOS>MOLECULE
QN6
   51    54     1     0     0
SMALL
No Charge or Current Charge


@<TRIPOS>ATOM
      1 C01          2.0270     5.0610    18.8750 cp         1 QN6      -0.147500
      2 C02          3.1670     5.9270    19.3250 cp         1 QN6       0.452500
      3 C05          3.7870     6.5210    16.9950 cc         1 QN6       0.463000
      4 C06          5.0270     7.4780    18.9620 ca         1 QN6      -0.001300
      5 C07          5.9930     8.2370    18.0250 c3         1 QN6      -0.040100
      6 C10         -0.0490     4.7360    17.5980 ca         1 QN6      -0.111000
      7 C11         -0.1340     3.4090    18.0490 ca         1 QN6      -0.095000
      8 C13          1.9120     3.7220    19.3310 ca         1 QN6      -0.078000
      9 C15          8.3470     8.4440    17.0480 c3         1 QN6      -0.091600
     10 C16          4.3070     6.7460    21.1740 ca         1 QN6       0.384300
     11 C17          5.1810     7.5250    20.3790 ca         1 QN6      -0.123300
     12 C18          6.2650     8.3670    21.0780 c3         1 QN6      -0.027100
     13 C19          7.3300     7.5070    21.7950 c3         1 QN6      -0.069400
     14 C20          6.9180     7.0110    23.1980 c3         1 QN6      -0.075400
     15 C21          5.6970     6.0670    23.2250 c3         1 QN6      -0.069400
     16 C22          4.3910     6.7020    22.6980 c3         1 QN6      -0.133700
     17 C03          3.9830     6.6640    18.4330 ca         1 QN6      -0.201500
     18 N04          3.3440     5.9670    20.6540 nb         1 QN6      -0.677000
     19 C08          7.3880     7.5650    17.8820 c3         1 QN6      -0.056700
     20 C09          1.0160     5.5550    18.0090 ca         1 QN6      -0.078000
     21 C12          0.8460     2.9040    18.9190 ca         1 QN6      -0.111000
     22 C14          7.2970     6.1360    17.2990 c3         1 QN6      -0.091600
     23 N23          3.8910     5.4140    16.2910 nd         1 QN6      -0.368000
     24 N24          3.5490     5.7410    14.9990 nd         1 QN6      -0.046000
     25 N25          3.2110     6.9980    14.8900 nc         1 QN6      -0.206800
     26 N26          3.3480     7.4940    16.1460 na         1 QN6      -0.214700
     27 H27          5.5860     8.3620    17.0200 hc         1 QN6       0.048700
     28 H28          6.1150     9.2690    18.3720 hc         1 QN6       0.048700
     29 H31         -0.8130     5.1330    16.9320 ha         1 QN6       0.115000
     30 H32         -0.9590     2.7770    17.7310 ha         1 QN6       0.114000
     31 H34          2.6640     3.3140    20.0040 ha         1 QN6       0.113000
     32 H40          9.3430     7.9880    16.9950 hc         1 QN6       0.038200
     33 H38          7.9730     8.5700    16.0250 hc         1 QN6       0.038200
     34 H39          8.4560     9.4370    17.5000 hc         1 QN6       0.038200
     35 H42          6.7910     9.0310    20.3880 hc         1 QN6       0.048700
     36 H41          5.8020     9.0490    21.8020 hc         1 QN6       0.048700
     37 H43          7.6020     6.6520    21.1650 hc         1 QN6       0.044700
     38 H44          8.2410     8.1100    21.9070 hc         1 QN6       0.044700
     39 H45          7.7720     6.4860    23.6450 hc         1 QN6       0.039700
     40 H46          6.7190     7.8770    23.8430 hc         1 QN6       0.039700
     41 H48          5.9190     5.1550    22.6570 hc         1 QN6       0.046700
     42 H47          5.5360     5.7530    24.2640 hc         1 QN6       0.046700
     43 H50          4.2730     7.7100    23.1140 hc         1 QN6       0.062200
     44 H49          3.5500     6.1230    23.1020 hc         1 QN6       0.062200
     45 H29          7.8300     7.4760    18.8800 hc         1 QN6       0.049700
     46 H30          1.0520     6.5850    17.6630 ha         1 QN6       0.113000
     47 H33          0.7800     1.8780    19.2740 ha         1 QN6       0.115000
     48 H37          8.2940     5.6870    17.2220 hc         1 QN6       0.038200
     49 H36          6.6890     5.4870    17.9400 hc         1 QN6       0.038200
     50 H35          6.8500     6.1500    16.2970 hc         1 QN6       0.038200
     51 H51          3.1410     8.4570    16.3780 hn         1 QN6       0.386000
@<TRIPOS>BOND
     1     1     2 1   
     2     1     8 ar  
     3     1    20 ar  
     4     2    17 ar  
     5     2    18 ar  
     6     3    17 1   
     7     3    23 2   
     8     3    26 1   
     9     4     5 1   
    10     4    11 ar  
    11     4    17 ar  
    12     5    19 1   
    13     5    27 1   
    14     5    28 1   
    15     6     7 ar  
    16     6    20 ar  
    17     6    29 1   
    18     7    21 ar  
    19     7    30 1   
    20     8    21 ar  
    21     8    31 1   
    22     9    19 1   
    23     9    32 1   
    24     9    33 1   
    25     9    34 1   
    26    10    11 ar  
    27    10    16 1   
    28    10    18 ar  
    29    11    12 1   
    30    12    13 1   
    31    12    35 1   
    32    12    36 1   
    33    13    14 1   
    34    13    37 1   
    35    13    38 1   
    36    14    15 1   
    37    14    39 1   
    38    14    40 1   
    39    15    16 1   
    40    15    41 1   
    41    15    42 1   
    42    16    43 1   
    43    16    44 1   
    44    19    22 1   
    45    19    45 1   
    46    20    46 1   
    47    21    47 1   
    48    22    48 1   
    49    22    49 1   
    50    22    50 1   
    51    23    24 1   
    52    24    25 2   
    53    25    26 1   
    54    26    51 1   
@<TRIPOS>SUBSTRUCTURE
     1 QN6         1 TEMP              0 ****  ****    0 ROOT
