@<TRIPOS>MOLECULE
QN6
   51    54     1     0     0
SMALL
abcg2


@<TRIPOS>ATOM
      1 C01          2.0250     5.1010    18.8530 cp         1 QN6      -0.147500
      2 C02          3.1540     5.9390    19.3210 cp         1 QN6       0.452500
      3 C05          3.7750     6.5050    17.0050 cc         1 QN6       0.463000
      4 C06          5.0200     7.4370    18.9690 ca         1 QN6      -0.001300
      5 C07          5.9720     8.1640    18.0570 c3         1 QN6      -0.040100
      6 C10         -0.0340     4.8160    17.6250 ca         1 QN6      -0.111000
      7 C11         -0.1100     3.4950    18.0430 ca         1 QN6      -0.095000
      8 C13          1.9300     3.7790    19.2850 ca         1 QN6      -0.078000
      9 C15          8.2780     8.4120    17.1260 c3         1 QN6      -0.091600
     10 C16          4.3130     6.7090    21.1470 ca         1 QN6       0.384300
     11 C17          5.1690     7.4910    20.3600 ca         1 QN6      -0.123300
     12 C18          6.2110     8.3420    21.0350 c3         1 QN6      -0.027100
     13 C19          7.3220     7.5540    21.7420 c3         1 QN6      -0.069400
     14 C20          6.9390     7.0320    23.1200 c3         1 QN6      -0.075400
     15 C21          5.7630     6.0650    23.1420 c3         1 QN6      -0.069400
     16 C22          4.4420     6.6620    22.6430 c3         1 QN6      -0.133700
     17 C03          3.9800     6.6510    18.4500 ca         1 QN6      -0.201500
     18 N04          3.3470     5.9600    20.6320 nb         1 QN6      -0.677000
     19 C08          7.3710     7.5300    17.9750 c3         1 QN6      -0.056700
     20 C09          1.0280     5.6150    18.0270 ca         1 QN6      -0.078000
     21 C12          0.8740     2.9790    18.8770 ca         1 QN6      -0.111000
     22 C14          7.3240     6.1110    17.4200 c3         1 QN6      -0.091600
     23 N23          4.0060     5.4360    16.2790 nd         1 QN6      -0.368000
     24 N24          3.6470     5.7440    15.0330 nd         1 QN6      -0.046000
     25 N25          3.2120     6.9400    14.9600 nc         1 QN6      -0.206800
     26 N26          3.2830     7.4340    16.1810 na         1 QN6      -0.214700
     27 H27          5.5740     8.2250    17.0430 hc         1 QN6       0.048700
     28 H28          6.0700     9.2000    18.3900 hc         1 QN6       0.048700
     29 H31         -0.8050     5.2310    16.9890 ha         1 QN6       0.115000
     30 H32         -0.9360     2.8720    17.7260 ha         1 QN6       0.114000
     31 H34          2.6930     3.3730    19.9360 ha         1 QN6       0.113000
     32 H40          9.2890     8.0050    17.0820 hc         1 QN6       0.038200
     33 H38          7.9050     8.4830    16.1010 hc         1 QN6       0.038200
     34 H39          8.3440     9.4240    17.5290 hc         1 QN6       0.038200
     35 H42          6.6640     9.0220    20.3160 hc         1 QN6       0.048700
     36 H41          5.7170     8.9890    21.7690 hc         1 QN6       0.048700
     37 H43          7.6480     6.7240    21.1070 hc         1 QN6       0.044700
     38 H44          8.1870     8.2120    21.8510 hc         1 QN6       0.044700
     39 H45          7.8090     6.5400    23.5640 hc         1 QN6       0.039700
     40 H46          6.7050     7.8820    23.7690 hc         1 QN6       0.039700
     41 H48          6.0010     5.1670    22.5620 hc         1 QN6       0.046700
     42 H47          5.6130     5.7300    24.1710 hc         1 QN6       0.046700
     43 H50          4.3180     7.6670    23.0610 hc         1 QN6       0.062200
     44 H49          3.6100     6.0650    23.0180 hc         1 QN6       0.062200
     45 H29          7.7930     7.4830    18.9830 hc         1 QN6       0.049700
     46 H30          1.0580     6.6510    17.7150 ha         1 QN6       0.113000
     47 H33          0.8180     1.9510    19.2120 ha         1 QN6       0.115000
     48 H37          8.3260     5.6840    17.3810 hc         1 QN6       0.038200
     49 H36          6.7070     5.4500    18.0290 hc         1 QN6       0.038200
     50 H35          6.9200     6.1010    16.4050 hc         1 QN6       0.038200
     51 H51          2.9760     8.3770    16.3830 hn         1 QN6       0.386000
@<TRIPOS>BOND
     1     1     2 1   
     2     1     8 ar  
     3     1    20 ar  
     4     2    17 ar  
     5     2    18 ar  
     6     3    17 1   
     7     3    23 2   
     8     3    26 1   
     9     4     5 1   
    10     4    11 ar  
    11     4    17 ar  
    12     5    19 1   
    13     5    27 1   
    14     5    28 1   
    15     6     7 ar  
    16     6    20 ar  
    17     6    29 1   
    18     7    21 ar  
    19     7    30 1   
    20     8    21 ar  
    21     8    31 1   
    22     9    19 1   
    23     9    32 1   
    24     9    33 1   
    25     9    34 1   
    26    10    11 ar  
    27    10    16 1   
    28    10    18 ar  
    29    11    12 1   
    30    12    13 1   
    31    12    35 1   
    32    12    36 1   
    33    13    14 1   
    34    13    37 1   
    35    13    38 1   
    36    14    15 1   
    37    14    39 1   
    38    14    40 1   
    39    15    16 1   
    40    15    41 1   
    41    15    42 1   
    42    16    43 1   
    43    16    44 1   
    44    19    22 1   
    45    19    45 1   
    46    20    46 1   
    47    21    47 1   
    48    22    48 1   
    49    22    49 1   
    50    22    50 1   
    51    23    24 1   
    52    24    25 2   
    53    25    26 1   
    54    26    51 1   
@<TRIPOS>SUBSTRUCTURE
     1 QN6         1 TEMP              0 ****  ****    0 ROOT
