@<TRIPOS>MOLECULE
QN7
   53    57     1     0     0
SMALL
No Charge or Current Charge


@<TRIPOS>ATOM
      1 C1           8.1890     0.2650     1.0580 c3         1 QN7       0.147900
      2 O2           6.8220    -0.0540     1.3730 os         1 QN7      -0.325100
      3 C3           5.8510    -0.2080     0.3970 ca         1 QN7       0.100100
      4 C4           6.1420    -0.0570    -0.9770 ca         1 QN7      -0.177000
      5 C5           5.1240    -0.2120    -1.9310 ca         1 QN7      -0.091000
      6 C6           3.8160    -0.5200    -1.5260 ca         1 QN7      -0.114000
      7 C7           3.4910    -0.6850    -0.1570 cp         1 QN7      -0.037000
      8 C8           4.5320    -0.5190     0.7980 ca         1 QN7       0.147000
      9 F9           4.2610    -0.6310     2.1220 f          1 QN7      -0.164000
     10 C10          2.0870    -1.0150     0.2420 cp         1 QN7      -0.048000
     11 C11          1.8070    -2.0270     1.1900 ca         1 QN7      -0.074000
     12 C12          0.4850    -2.3370     1.5380 ca         1 QN7      -0.119000
     13 C13         -0.5850    -1.6410     0.9540 ca         1 QN7      -0.085000
     14 C14         -0.3460    -0.6120     0.0110 ca         1 QN7      -0.082300
     15 C15          0.9930    -0.3300    -0.3410 ca         1 QN7      -0.062000
     16 C16         -1.4830     0.1830    -0.6690 c5         1 QN7       0.216500
     17 C17         -2.8210    -0.0200     0.0820 c2         1 QN7       0.614200
     18 N18         -3.2670     0.4910     1.1840 n2         1 QN7      -0.618900
     19 C19         -4.6310     0.1540     1.6770 c6         1 QN7       0.067800
     20 C20         -5.2730    -1.0760     0.9830 c6         1 QN7       0.147000
     21 C21         -4.9920    -1.0870    -0.5380 c6         1 QN7       0.181800
     22 N22         -3.5600    -0.7620    -0.7900 nh         1 QN7      -0.791600
     23 C23         -2.9000    -0.9050    -1.9510 c2         1 QN7       0.833100
     24 N24         -1.7410    -0.3990    -2.0390 n2         1 QN7      -0.704900
     25 N25         -3.5460    -1.4890    -2.9520 nv         1 QN7      -1.023200
     26 F26         -4.7700    -2.2570     1.5650 f          1 QN7      -0.105500
     27 F27         -6.6610    -1.0770     1.2110 f          1 QN7      -0.105500
     28 C28         -1.1970     1.7010    -0.6770 ca         1 QN7      -0.036300
     29 C29         -1.4360     2.5140    -1.8080 ca         1 QN7      -0.139000
     30 C30         -1.1580     3.8900    -1.7530 ca         1 QN7       0.323900
     31 N31         -0.6640     4.5000    -0.6520 nb         1 QN7      -0.660000
     32 C32         -0.4360     3.7330     0.4370 ca         1 QN7       0.323900
     33 C33         -0.6860     2.3510     0.4670 ca         1 QN7      -0.139000
     34 H11C         8.7840     0.3400     1.9770 h1         1 QN7       0.042367
     35 H12C         8.6360    -0.5130     0.4260 h1         1 QN7       0.042367
     36 H13C         8.2540     1.2270     0.5330 h1         1 QN7       0.042367
     37 H4           7.1440     0.1820    -1.3210 ha         1 QN7       0.119000
     38 H5           5.3500    -0.0950    -2.9890 ha         1 QN7       0.115000
     39 H6           3.0450    -0.6450    -2.2830 ha         1 QN7       0.124000
     40 H11          2.6210    -2.5880     1.6430 ha         1 QN7       0.121000
     41 H15          1.1930     0.4440    -1.0780 ha         1 QN7       0.135000
     42 H12          0.2870    -3.1260     2.2610 ha         1 QN7       0.116000
     43 H13         -1.5960    -1.9210     1.2410 ha         1 QN7       0.132000
     44 H191        -4.5790    -0.0370     2.7590 h1         1 QN7       0.087700
     45 H192        -5.2790     1.0320     1.5340 h1         1 QN7       0.087700
     46 H211        -5.2550    -2.0750    -0.9460 h1         1 QN7       0.073200
     47 H212        -5.6380    -0.3390    -1.0220 h1         1 QN7       0.073200
     48 H251        -4.5130    -1.2110    -2.9810 hn         1 QN7       0.487000
     49 H252        -3.0550    -1.3470    -3.8240 hn         1 QN7       0.487000
     50 H29         -1.8340     2.0990    -2.7290 ha         1 QN7       0.140000
     51 H33         -0.4840     1.7970     1.3790 ha         1 QN7       0.140000
     52 H30         -1.3360     4.5250    -2.6190 h4         1 QN7       0.017100
     53 H32         -0.0420     4.2430     1.3160 h4         1 QN7       0.017100
@<TRIPOS>BOND
     1     1     2 1   
     2     1    34 1   
     3     1    35 1   
     4     1    36 1   
     5     2     3 1   
     6     3     4 ar  
     7     3     8 ar  
     8     4     5 ar  
     9     4    37 1   
    10     5     6 ar  
    11     5    38 1   
    12     6     7 ar  
    13     6    39 1   
    14     7     8 ar  
    15     7    10 1   
    16     8     9 1   
    17    10    11 ar  
    18    10    15 ar  
    19    11    12 ar  
    20    11    40 1   
    21    12    13 ar  
    22    12    42 1   
    23    13    14 ar  
    24    13    43 1   
    25    14    15 ar  
    26    14    16 1   
    27    15    41 1   
    28    16    17 1   
    29    16    24 1   
    30    16    28 1   
    31    17    18 2   
    32    17    22 1   
    33    18    19 1   
    34    19    20 1   
    35    19    44 1   
    36    19    45 1   
    37    20    21 1   
    38    20    26 1   
    39    20    27 1   
    40    21    22 1   
    41    21    46 1   
    42    21    47 1   
    43    22    23 1   
    44    23    24 2   
    45    23    25 1   
    46    25    48 1   
    47    25    49 1   
    48    28    29 ar  
    49    28    33 ar  
    50    29    30 ar  
    51    29    50 1   
    52    30    31 ar  
    53    30    52 1   
    54    31    32 ar  
    55    32    33 ar  
    56    32    53 1   
    57    33    51 1   
@<TRIPOS>SUBSTRUCTURE
     1 QN7         1 TEMP              0 ****  ****    0 ROOT
