@<TRIPOS>MOLECULE
QN7
   53    57     1     0     0
SMALL
bcc


@<TRIPOS>ATOM
      1 C1           8.0530    -0.0700    -0.2540 c3         1 QN7       0.124700
      2 O2           6.7930     0.0710     0.3740 os         1 QN7      -0.301900
      3 C3           5.7300    -0.5080    -0.2050 ca         1 QN7       0.100100
      4 C4           5.7510    -1.2540    -1.3780 ca         1 QN7      -0.195000
      5 C5           4.5680    -1.7900    -1.8770 ca         1 QN7      -0.109000
      6 C6           3.3680    -1.5960    -1.2210 ca         1 QN7      -0.132000
      7 C7           3.3190    -0.8560    -0.0350 cp         1 QN7      -0.037000
      8 C8           4.5040    -0.3250     0.4390 ca         1 QN7       0.111900
      9 F9           4.5010     0.4220     1.5540 f          1 QN7      -0.128900
     10 C10          2.0350    -0.6320     0.6620 cp         1 QN7      -0.048000
     11 C11          1.8810    -0.8970     2.0220 ca         1 QN7      -0.092000
     12 C12          0.6500    -0.7030     2.6270 ca         1 QN7      -0.137000
     13 C13         -0.4350    -0.2380     1.8960 ca         1 QN7      -0.103000
     14 C14         -0.2980     0.0250     0.5380 ca         1 QN7      -0.082300
     15 C15          0.9380    -0.1760    -0.0660 ca         1 QN7      -0.080000
     16 C16         -1.4430     0.5970    -0.3070 c5         1 QN7       0.216500
     17 C17         -2.7910    -0.0430     0.0380 c2         1 QN7       0.614200
     18 N18         -3.4250     0.0030     1.1290 n2         1 QN7      -0.618900
     19 C19         -4.6930    -0.6960     1.1930 c6         1 QN7       0.067800
     20 C20         -4.7900    -1.8360     0.2000 c6         1 QN7       0.389600
     21 C21         -4.4150    -1.4170    -1.2090 c6         1 QN7       0.181800
     22 N22         -3.1760    -0.6890    -1.1090 nh         1 QN7      -0.791600
     23 C23         -2.2330    -0.4410    -2.0900 c2         1 QN7       0.833100
     24 N24         -1.2460     0.2820    -1.7070 n2         1 QN7      -0.704900
     25 N25         -2.3820    -0.9940    -3.3070 nv         1 QN7      -0.912800
     26 F26         -3.9520    -2.8420     0.5930 f          1 QN7      -0.226800
     27 F27         -6.0450    -2.3580     0.1930 f          1 QN7      -0.226800
     28 C28         -1.4720     2.1080    -0.0950 ca         1 QN7      -0.036300
     29 C29         -1.0240     2.9670    -1.0890 ca         1 QN7      -0.222300
     30 C30         -1.0200     4.3340    -0.8490 ca         1 QN7       0.389200
     31 N31         -1.4270     4.8860     0.2860 nb         1 QN7      -0.660000
     32 C32         -1.8580     4.0600     1.2340 ca         1 QN7       0.389200
     33 C33         -1.8960     2.6820     1.1000 ca         1 QN7      -0.222300
     34 H11C         8.7650     0.4740     0.3610 h1         1 QN7       0.042367
     35 H12C         8.3640    -1.1160    -0.3130 h1         1 QN7       0.042367
     36 H13C         8.0570     0.3580    -1.2600 h1         1 QN7       0.042367
     37 H4           6.6770    -1.4230    -1.9100 ha         1 QN7       0.137000
     38 H5           4.5970    -2.3720    -2.7880 ha         1 QN7       0.133000
     39 H6           2.4560    -2.0280    -1.6110 ha         1 QN7       0.142000
     40 H11          2.7100    -1.2810     2.6040 ha         1 QN7       0.139000
     41 H15          1.0480     0.0340    -1.1210 ha         1 QN7       0.153000
     42 H12          0.5290    -0.9190     3.6810 ha         1 QN7       0.134000
     43 H13         -1.3880    -0.0970     2.3870 ha         1 QN7       0.150000
     44 H191        -4.8380    -1.0840     2.2040 h1         1 QN7       0.087700
     45 H192        -5.5110     0.0070     1.0060 h1         1 QN7       0.087700
     46 H211        -4.2940    -2.3000    -1.8400 h1         1 QN7       0.073200
     47 H212        -5.2090    -0.7960    -1.6320 h1         1 QN7       0.073200
     48 H251        -3.3060    -1.2130    -3.6420 hn         1 QN7       0.431800
     49 H252        -1.7530    -0.6600    -4.0190 hn         1 QN7       0.431800
     50 H29         -0.6820     2.5850    -2.0390 ha         1 QN7       0.158000
     51 H33         -2.2710     2.0810     1.9160 ha         1 QN7       0.158000
     52 H30         -0.6710     5.0130    -1.6210 h4         1 QN7       0.017100
     53 H32         -2.1960     4.5160     2.1590 h4         1 QN7       0.017100
@<TRIPOS>BOND
     1     1     2 1   
     2     1    34 1   
     3     1    35 1   
     4     1    36 1   
     5     2     3 1   
     6     3     4 ar  
     7     3     8 ar  
     8     4     5 ar  
     9     4    37 1   
    10     5     6 ar  
    11     5    38 1   
    12     6     7 ar  
    13     6    39 1   
    14     7     8 ar  
    15     7    10 1   
    16     8     9 1   
    17    10    11 ar  
    18    10    15 ar  
    19    11    12 ar  
    20    11    40 1   
    21    12    13 ar  
    22    12    42 1   
    23    13    14 ar  
    24    13    43 1   
    25    14    15 ar  
    26    14    16 1   
    27    15    41 1   
    28    16    17 1   
    29    16    24 1   
    30    16    28 1   
    31    17    18 2   
    32    17    22 1   
    33    18    19 1   
    34    19    20 1   
    35    19    44 1   
    36    19    45 1   
    37    20    21 1   
    38    20    26 1   
    39    20    27 1   
    40    21    22 1   
    41    21    46 1   
    42    21    47 1   
    43    22    23 1   
    44    23    24 2   
    45    23    25 1   
    46    25    48 1   
    47    25    49 1   
    48    28    29 ar  
    49    28    33 ar  
    50    29    30 ar  
    51    29    50 1   
    52    30    31 ar  
    53    30    52 1   
    54    31    32 ar  
    55    32    33 ar  
    56    32    53 1   
    57    33    51 1   
@<TRIPOS>SUBSTRUCTURE
     1 QN7         1 TEMP              0 ****  ****    0 ROOT
