@<TRIPOS>MOLECULE
QN8
   23    24     1     0     0
SMALL
abcg2


@<TRIPOS>ATOM
      1 C1         168.8760    -8.3030    35.2180 c3         1 QN8      -0.075100
      2 C2         167.6260    -7.6910    34.5980 c6         1 QN8       0.058500
      3 C3         167.2270    -8.4030    33.3090 c          1 QN8       0.550100
      4 C4         167.0570    -7.4310    32.1730 c6         1 QN8      -0.174700
      5 C5         168.4020    -6.7060    32.0040 c6         1 QN8      -0.101900
      6 C6         168.7310    -5.9690    33.3240 c6         1 QN8       0.144300
      7 C7         166.4440    -5.7440    33.9190 c6         1 QN8       0.144300
      8 C8         165.9940    -6.4040    32.5910 c6         1 QN8      -0.101900
      9 N1         167.7390    -6.2540    34.3580 n3         1 QN8      -0.676600
     10 O1         167.0800    -9.6010    33.2290 o          1 QN8      -0.509100
     11 H1         169.1630    -7.7420    36.1070 hc         1 QN8       0.045700
     12 H2         168.6810    -9.3320    35.5160 hc         1 QN8       0.045700
     13 H3         169.7240    -8.3140    34.5320 hc         1 QN8       0.045700
     14 H4         166.8040    -7.8340    35.3110 h1         1 QN8       0.081700
     15 H5         166.7690    -7.9520    31.2600 hc         1 QN8       0.081700
     16 H6         169.1860    -7.4180    31.7420 hc         1 QN8       0.051950
     17 H7         168.3180    -6.0070    31.1690 hc         1 QN8       0.051950
     18 H8         169.7220    -6.2420    33.6870 h1         1 QN8       0.057950
     19 H9         168.7480    -4.8890    33.1720 h1         1 QN8       0.057950
     20 H10        166.5220    -4.6610    33.8080 h1         1 QN8       0.057950
     21 H11        165.7150    -5.9290    34.7110 h1         1 QN8       0.057950
     22 H12        165.8920    -5.6640    31.7940 hc         1 QN8       0.051950
     23 H13        165.0200    -6.8840    32.6990 hc         1 QN8       0.051950
@<TRIPOS>BOND
     1     1     2 1   
     2     1    11 1   
     3     1    12 1   
     4     1    13 1   
     5     2     3 1   
     6     2     9 1   
     7     2    14 1   
     8     3     4 1   
     9     3    10 2   
    10     4     5 1   
    11     4     8 1   
    12     4    15 1   
    13     5     6 1   
    14     5    16 1   
    15     5    17 1   
    16     6     9 1   
    17     6    18 1   
    18     6    19 1   
    19     7     8 1   
    20     7     9 1   
    21     7    20 1   
    22     7    21 1   
    23     8    22 1   
    24     8    23 1   
@<TRIPOS>SUBSTRUCTURE
     1 QN8         1 TEMP              0 ****  ****    0 ROOT
