@<TRIPOS>MOLECULE
QN8
   23    24     1     0     0
SMALL
No Charge or Current Charge


@<TRIPOS>ATOM
      1 C1         168.8890    -8.3410    35.2700 c3         1 QN8      -0.075100
      2 C2         167.6210    -7.7030    34.6330 c6         1 QN8       0.058500
      3 C3         167.2350    -8.4500    33.3180 c          1 QN8       0.550100
      4 C4         167.0460    -7.4680    32.1440 c6         1 QN8      -0.174700
      5 C5         168.3790    -6.6660    31.9850 c6         1 QN8      -0.101900
      6 C6         168.7640    -5.9450    33.3220 c6         1 QN8       0.144300
      7 C7         166.4230    -5.6970    33.9150 c6         1 QN8       0.144300
      8 C8         165.9900    -6.4010    32.5830 c6         1 QN8      -0.101900
      9 N1         167.7460    -6.2170    34.3890 n3         1 QN8      -0.676600
     10 O1         167.1010    -9.6650    33.2160 o          1 QN8      -0.509100
     11 H1         169.1930    -7.7950    36.1700 hc         1 QN8       0.045700
     12 H2         168.6980    -9.3800    35.5650 hc         1 QN8       0.045700
     13 H3         169.7380    -8.3490    34.5760 hc         1 QN8       0.045700
     14 H4         166.7870    -7.8860    35.3280 h1         1 QN8       0.081700
     15 H5         166.7600    -8.0040    31.2290 hc         1 QN8       0.081700
     16 H6         169.1890    -7.3470    31.6900 hc         1 QN8       0.051950
     17 H7         168.2880    -5.9290    31.1760 hc         1 QN8       0.051950
     18 H8         169.7670    -6.2680    33.6400 h1         1 QN8       0.057950
     19 H9         168.8380    -4.8630    33.1360 h1         1 QN8       0.057950
     20 H10        166.4750    -4.6100    33.7500 h1         1 QN8       0.057950
     21 H11        165.6500    -5.8600    34.6810 h1         1 QN8       0.057950
     22 H12        165.8520    -5.6510    31.7920 hc         1 QN8       0.051950
     23 H13        165.0110    -6.8810    32.7230 hc         1 QN8       0.051950
@<TRIPOS>BOND
     1     1     2 1   
     2     1    11 1   
     3     1    12 1   
     4     1    13 1   
     5     2     3 1   
     6     2     9 1   
     7     2    14 1   
     8     3     4 1   
     9     3    10 2   
    10     4     5 1   
    11     4     8 1   
    12     4    15 1   
    13     5     6 1   
    14     5    16 1   
    15     5    17 1   
    16     6     9 1   
    17     6    18 1   
    18     6    19 1   
    19     7     8 1   
    20     7     9 1   
    21     7    20 1   
    22     7    21 1   
    23     8    22 1   
    24     8    23 1   
@<TRIPOS>SUBSTRUCTURE
     1 QN8         1 TEMP              0 ****  ****    0 ROOT
