@<TRIPOS>MOLECULE
QN9
   68    72     1     0     0
SMALL
No Charge or Current Charge


@<TRIPOS>ATOM
      1 N1         -24.6530     6.1790    27.3100 n          1 QN9      -0.391800
      2 N3         -16.7080     5.2140    26.0080 nb         1 QN9      -0.645000
      3 C4         -25.0190     7.1880    26.2610 c6         1 QN9       0.055000
      4 C5         -25.7320     5.8670    28.3100 c6         1 QN9       0.055000
      5 C6         -26.7110     7.0320    28.6350 c6         1 QN9       0.149800
      6 C7         -23.5910     5.2770    27.0410 c          1 QN9       0.605100
      7 C8         -23.1710     4.2160    28.0810 c3         1 QN9      -0.152400
      8 C10        -22.1640     6.0680    29.5380 c6         1 QN9      -0.112400
      9 C13        -21.2300     3.2070    32.4940 ca         1 QN9      -0.136000
     10 C15        -21.6620     1.3490    30.9970 ca         1 QN9       0.088000
     11 C17        -21.7130     3.6440    30.1270 ca         1 QN9      -0.142300
     12 C20        -17.8510     4.9950    26.6980 ca         1 QN9       0.311900
     13 C21        -16.5020     6.4500    25.5040 ca         1 QN9       0.338900
     14 C22        -17.4150     7.5090    25.6700 ca         1 QN9      -0.085000
     15 C24        -18.0580     9.8290    25.2940 ca         1 QN9      -0.110000
     16 C26        -19.5280     8.3470    26.5520 ca         1 QN9      -0.097000
     17 C18        -20.6570     4.5350    28.0000 c          1 QN9       0.595100
     18 N2         -20.0210     5.7260    27.6710 ns         1 QN9      -0.168000
     19 C19        -18.8390     5.9890    26.9170 ca         1 QN9      -0.063000
     20 C27        -18.6090     7.2840    26.3910 ca         1 QN9      -0.030000
     21 C25        -19.2490     9.6120    26.0050 ca         1 QN9      -0.099000
     22 C23        -17.1410     8.7790    25.1250 ca         1 QN9      -0.086000
     23 C9         -21.9170     4.6360    28.9440 c6         1 QN9      -0.054700
     24 C16        -21.8360     2.2460    29.9300 ca         1 QN9      -0.059000
     25 Cl         -21.8220    -0.3810    30.7210 cl         1 QN9      -0.212000
     26 C14        -21.3640     1.8260    32.2810 ca         1 QN9      -0.060000
     27 C12        -21.3900     4.1100    31.4310 ca         1 QN9       0.165100
     28 O2         -21.2550     5.4520    31.7150 os         1 QN9      -0.346100
     29 C11        -21.1380     6.3970    30.6400 c6         1 QN9       0.159600
     30 O1         -22.9490     5.3740    26.0030 o          1 QN9      -0.651100
     31 C3         -26.0170     8.2910    26.7060 c6         1 QN9       0.149800
     32 N          -27.1980     7.7360    27.4210 n3         1 QN9      -0.722600
     33 C2         -28.1130     6.9080    26.5870 c3         1 QN9       0.167800
     34 C1         -28.7880     7.6730    25.4260 c3         1 QN9      -0.076400
     35 C          -29.8850     6.8580    24.7110 c3         1 QN9       0.159600
     36 O          -29.3130     5.7170    24.0590 oh         1 QN9      -0.675000
     37 H1         -24.1060     7.6820    25.8990 h1         1 QN9       0.066200
     38 H2         -25.4490     6.6520    25.4030 h1         1 QN9       0.066200
     39 H3         -26.3110     5.0110    27.9380 h1         1 QN9       0.066200
     40 H4         -25.2850     5.5630    29.2650 h1         1 QN9       0.066200
     41 H5         -27.5540     6.6400    29.2220 h1         1 QN9       0.063450
     42 H6         -26.1870     7.7460    29.2880 h1         1 QN9       0.063450
     43 H7         -23.9950     3.9920    28.7630 hc         1 QN9       0.078200
     44 H8         -22.9490     3.3020    27.5200 hc         1 QN9       0.078200
     45 H9         -22.1570     6.8490    28.7660 hc         1 QN9       0.063200
     46 H10        -23.1630     6.1130    29.9930 hc         1 QN9       0.063200
     47 H11        -20.9970     3.5810    33.4870 ha         1 QN9       0.135000
     48 H12        -17.9530     3.9920    27.1070 h4         1 QN9       0.038100
     49 H13        -15.5740     6.5960    24.9530 h4         1 QN9       0.019100
     50 H14        -17.8460    10.8090    24.8720 ha         1 QN9       0.115000
     51 H15        -20.4620     8.2120    27.0890 ha         1 QN9       0.127000
     52 H16        -20.4720     6.5530    28.0330 hn         1 QN9       0.203000
     53 H17        -19.9600    10.4260    26.1320 ha         1 QN9       0.112000
     54 H18        -16.2200     8.9520    24.5710 ha         1 QN9       0.116000
     55 H19        -22.0580     1.8370    28.9490 ha         1 QN9       0.125000
     56 H20        -21.2340     1.1290    33.1050 ha         1 QN9       0.133000
     57 H21        -20.1120     6.3620    30.2490 h1         1 QN9       0.072200
     58 H22        -21.3120     7.4080    31.0370 h1         1 QN9       0.072200
     59 H23        -25.4800     8.9860    27.3690 h1         1 QN9       0.063450
     60 H24        -26.3180     8.8840    25.8310 h1         1 QN9       0.063450
     61 H26        -28.9120     6.5110    27.2280 h1         1 QN9       0.038200
     62 H27        -27.5810     6.0410    26.1740 h1         1 QN9       0.038200
     63 H28        -28.0370     7.9780    24.6890 hc         1 QN9       0.056700
     64 H29        -29.2400     8.5890    25.8240 hc         1 QN9       0.056700
     65 H30        -30.3810     7.5030    23.9740 h1         1 QN9       0.024200
     66 H31        -30.6410     6.5440    25.4430 h1         1 QN9       0.024200
     67 H32        -30.0480     5.2520    23.6000 ho         1 QN9       0.443000
     68 O3         -20.2710     3.4530    27.5700 o          1 QN9      -0.578100
@<TRIPOS>BOND
     1     1     3 1   
     2     1     4 1   
     3     1     6 1   
     4     2    12 ar  
     5     2    13 ar  
     6     3    31 1   
     7     3    37 1   
     8     3    38 1   
     9     4     5 1   
    10     4    39 1   
    11     4    40 1   
    12     5    32 1   
    13     5    41 1   
    14     5    42 1   
    15     6     7 1   
    16     6    30 2   
    17     7    23 1   
    18     7    43 1   
    19     7    44 1   
    20     8    23 1   
    21     8    29 1   
    22     8    45 1   
    23     8    46 1   
    24     9    26 ar  
    25     9    27 ar  
    26     9    47 1   
    27    10    24 ar  
    28    10    25 1   
    29    10    26 ar  
    30    11    23 1   
    31    11    24 ar  
    32    11    27 ar  
    33    12    19 ar  
    34    12    48 1   
    35    13    14 ar  
    36    13    49 1   
    37    14    20 ar  
    38    14    22 ar  
    39    15    21 ar  
    40    15    22 ar  
    41    15    50 1   
    42    16    20 ar  
    43    16    21 ar  
    44    16    51 1   
    45    17    18 1   
    46    17    23 1   
    47    17    68 2   
    48    18    19 1   
    49    18    52 1   
    50    19    20 ar  
    51    21    53 1   
    52    22    54 1   
    53    24    55 1   
    54    26    56 1   
    55    27    28 1   
    56    28    29 1   
    57    29    57 1   
    58    29    58 1   
    59    31    32 1   
    60    31    59 1   
    61    31    60 1   
    62    32    33 1   
    63    33    34 1   
    64    33    61 1   
    65    33    62 1   
    66    34    35 1   
    67    34    63 1   
    68    34    64 1   
    69    35    36 1   
    70    35    65 1   
    71    35    66 1   
    72    36    67 1   
@<TRIPOS>SUBSTRUCTURE
     1 QN9         1 TEMP              0 ****  ****    0 ROOT
