@<TRIPOS>MOLECULE
QN9
   68    72     1     0     0
SMALL
abcg2


@<TRIPOS>ATOM
      1 N1         -24.4640     5.7240    26.8560 n          1 QN9      -0.391800
      2 N3         -16.3770     5.4930    26.6960 nb         1 QN9      -0.645000
      3 C4         -24.9970     6.7330    25.9320 c6         1 QN9       0.055000
      4 C5         -25.4970     5.1410    27.7180 c6         1 QN9       0.055000
      5 C6         -26.2600     6.2560    28.4450 c6         1 QN9       0.149800
      6 C7         -23.1520     5.4410    26.8510 c          1 QN9       0.605100
      7 C8         -22.6040     4.3570    27.7600 c3         1 QN9      -0.152400
      8 C10        -22.3290     6.2010    29.5050 c6         1 QN9      -0.112400
      9 C13        -22.1070     3.2750    32.4440 ca         1 QN9      -0.136000
     10 C15        -21.8110     1.5380    30.8360 ca         1 QN9       0.088000
     11 C17        -21.8350     3.8380    30.0990 ca         1 QN9      -0.142300
     12 C20        -17.6140     5.1840    27.1570 ca         1 QN9       0.311900
     13 C21        -16.2320     6.5890    25.9860 ca         1 QN9       0.338900
     14 C22        -17.2970     7.4690    25.6800 ca         1 QN9      -0.085000
     15 C24        -18.1520     9.4800    24.6510 ca         1 QN9      -0.110000
     16 C26        -19.6600     8.0480    25.8970 ca         1 QN9      -0.097000
     17 C18        -20.2580     5.0860    28.6410 c          1 QN9       0.595100
     18 N2         -19.9990     5.5920    27.4110 ns         1 QN9      -0.168000
     19 C19        -18.7290     5.9600    26.9330 ca         1 QN9      -0.063000
     20 C27        -18.5950     7.1570    26.1730 ca         1 QN9      -0.030000
     21 C25        -19.4370     9.1800    25.1530 ca         1 QN9      -0.099000
     22 C23        -17.1000     8.6410    24.9130 ca         1 QN9      -0.086000
     23 C9         -21.7590     4.8650    28.9750 c6         1 QN9      -0.054700
     24 C16        -21.7270     2.4750    29.8220 ca         1 QN9      -0.059000
     25 CL         -21.6680    -0.1680    30.4480 cl         1 QN9      -0.212000
     26 C14        -22.0110     1.9260    32.1550 ca         1 QN9      -0.060000
     27 C12        -22.0080     4.2320    31.4310 ca         1 QN9       0.165100
     28 O2         -22.1090     5.5290    31.8300 os         1 QN9      -0.346100
     29 C11        -21.7680     6.5390    30.8660 c6         1 QN9       0.159600
     30 O1         -22.3650     6.0420    26.0920 o          1 QN9      -0.651100
     31 C3         -25.7550     7.8110    26.7110 c6         1 QN9       0.149800
     32 N          -26.8180     7.2750    27.5620 n3         1 QN9      -0.722600
     33 C2         -28.0090     6.8360    26.8260 c3         1 QN9       0.167800
     34 C1         -28.8700     8.0110    26.3720 c3         1 QN9      -0.076400
     35 C          -30.0730     7.5820    25.5530 c3         1 QN9       0.159600
     36 O          -29.6160     7.0740    24.2900 oh         1 QN9      -0.675000
     37 H1         -24.1710     7.1680    25.3810 h1         1 QN9       0.066200
     38 H2         -25.6600     6.2290    25.2240 h1         1 QN9       0.066200
     39 H3         -26.1780     4.5570    27.0930 h1         1 QN9       0.066200
     40 H4         -25.0590     4.4740    28.4520 h1         1 QN9       0.066200
     41 H5         -27.0630     5.8090    29.0320 h1         1 QN9       0.063450
     42 H6         -25.5720     6.7500    29.1380 h1         1 QN9       0.063450
     43 H7         -23.4000     3.7360    28.1510 hc         1 QN9       0.078200
     44 H8         -21.9910     3.7170    27.1260 hc         1 QN9       0.078200
     45 H9         -22.1170     7.0140    28.8100 hc         1 QN9       0.063200
     46 H10        -23.4130     6.1100    29.5880 hc         1 QN9       0.063200
     47 H11        -22.2530     3.6100    33.4630 ha         1 QN9       0.135000
     48 H12        -17.6990     4.2690    27.7260 h4         1 QN9       0.038100
     49 H13        -15.2370     6.8190    25.6190 h4         1 QN9       0.019100
     50 H14        -18.0020    10.3780    24.0650 ha         1 QN9       0.115000
     51 H15        -20.6510     7.8380    26.2720 ha         1 QN9       0.127000
     52 H16        -20.8080     5.8030    26.8100 hn         1 QN9       0.203000
     53 H17        -20.2580     9.8560    24.9500 ha         1 QN9       0.112000
     54 H18        -16.1060     8.8620    24.5430 ha         1 QN9       0.116000
     55 H19        -21.5740     2.1420    28.8050 ha         1 QN9       0.125000
     56 H20        -22.0840     1.1880    32.9420 ha         1 QN9       0.133000
     57 H21        -20.6810     6.6410    30.8370 h1         1 QN9       0.072200
     58 H22        -22.2000     7.4610    31.2490 h1         1 QN9       0.072200
     59 H23        -25.0440     8.3430    27.3500 h1         1 QN9       0.063450
     60 H24        -26.1710     8.5320    26.0080 h1         1 QN9       0.063450
     61 H26        -28.5990     6.2150    27.5050 h1         1 QN9       0.038200
     62 H27        -27.7660     6.2070    25.9610 h1         1 QN9       0.038200
     63 H28        -28.2810     8.7130    25.7760 hc         1 QN9       0.056700
     64 H29        -29.2230     8.5560    27.2510 hc         1 QN9       0.056700
     65 H30        -30.7370     8.4380    25.3940 h1         1 QN9       0.024200
     66 H31        -30.6390     6.8090    26.0860 h1         1 QN9       0.024200
     67 H32        -30.3830     6.7640    23.7930 ho         1 QN9       0.443000
     68 O3         -19.3930     4.8650    29.4810 o          1 QN9      -0.578100
@<TRIPOS>BOND
     1     1     3 1   
     2     1     4 1   
     3     1     6 1   
     4     2    12 ar  
     5     2    13 ar  
     6     3    31 1   
     7     3    37 1   
     8     3    38 1   
     9     4     5 1   
    10     4    39 1   
    11     4    40 1   
    12     5    32 1   
    13     5    41 1   
    14     5    42 1   
    15     6     7 1   
    16     6    30 2   
    17     7    23 1   
    18     7    43 1   
    19     7    44 1   
    20     8    23 1   
    21     8    29 1   
    22     8    45 1   
    23     8    46 1   
    24     9    26 ar  
    25     9    27 ar  
    26     9    47 1   
    27    10    24 ar  
    28    10    25 1   
    29    10    26 ar  
    30    11    23 1   
    31    11    24 ar  
    32    11    27 ar  
    33    12    19 ar  
    34    12    48 1   
    35    13    14 ar  
    36    13    49 1   
    37    14    20 ar  
    38    14    22 ar  
    39    15    21 ar  
    40    15    22 ar  
    41    15    50 1   
    42    16    20 ar  
    43    16    21 ar  
    44    16    51 1   
    45    17    18 1   
    46    17    23 1   
    47    17    68 2   
    48    18    19 1   
    49    18    52 1   
    50    19    20 ar  
    51    21    53 1   
    52    22    54 1   
    53    24    55 1   
    54    26    56 1   
    55    27    28 1   
    56    28    29 1   
    57    29    57 1   
    58    29    58 1   
    59    31    32 1   
    60    31    59 1   
    61    31    60 1   
    62    32    33 1   
    63    33    34 1   
    64    33    61 1   
    65    33    62 1   
    66    34    35 1   
    67    34    63 1   
    68    34    64 1   
    69    35    36 1   
    70    35    65 1   
    71    35    66 1   
    72    36    67 1   
@<TRIPOS>SUBSTRUCTURE
     1 QN9         1 TEMP              0 ****  ****    0 ROOT
