@<TRIPOS>MOLECULE
QNB
   48    51     1     0     0
SMALL
abcg2


@<TRIPOS>ATOM
      1 C1           1.1080    -0.1150     0.4920 c3         1 QNB       0.240600
      2 C2           2.2190    -1.1440     0.2910 ca         1 QNB      -0.092800
      3 C3           2.8650    -1.2550    -0.9400 ca         1 QNB      -0.084000
      4 C4           3.8820    -2.1770    -1.1260 ca         1 QNB      -0.114250
      5 C5           4.2770    -3.0060    -0.0830 ca         1 QNB      -0.100000
      6 C6           3.6490    -2.8950     1.1460 ca         1 QNB      -0.114250
      7 C7           2.6290    -1.9680     1.3330 ca         1 QNB      -0.084000
      8 C8           1.6350     1.2650     0.1100 ca         1 QNB      -0.092800
      9 C9           1.4250     1.8240    -1.1460 ca         1 QNB      -0.084000
     10 C10          1.9630     3.0640    -1.4690 ca         1 QNB      -0.114250
     11 C11          2.7180     3.7610    -0.5390 ca         1 QNB      -0.100000
     12 C12          2.9340     3.2070     0.7170 ca         1 QNB      -0.114250
     13 C13          2.3980     1.9700     1.0390 ca         1 QNB      -0.084000
     14 C14         -0.1060    -0.4650    -0.3980 c          1 QNB       0.558100
     15 O15          0.6940    -0.0250     1.8260 oh         1 QNB      -0.632000
     16 O16         -0.0690    -1.2000    -1.3510 o          1 QNB      -0.479000
     17 O17         -1.1830     0.1640     0.0180 os         1 QNB      -0.421100
     18 C18         -2.4010     0.0080    -0.7350 c6         1 QNB       0.140300
     19 C19         -3.0300    -1.3960    -0.5610 c6         1 QNB       0.131800
     20 N20         -4.3560    -1.3200     0.0300 n3         1 QNB      -0.679600
     21 C21         -4.2680    -0.6990     1.3470 c6         1 QNB       0.145300
     22 C22         -3.7250     0.7470     1.2580 c6         1 QNB      -0.106400
     23 C23         -3.3910     1.0380    -0.2070 c6         1 QNB      -0.065700
     24 C24         -4.6630     0.8960    -1.0460 c6         1 QNB      -0.106400
     25 C25         -5.2300    -0.5280    -0.8280 c6         1 QNB       0.145300
     26 H3           2.5920    -0.6090    -1.7640 ha         1 QNB       0.118500
     27 H4           4.3710    -2.2440    -2.0890 ha         1 QNB       0.113750
     28 H5           5.0730    -3.7250    -0.2270 ha         1 QNB       0.113500
     29 H6           3.9520    -3.5260     1.9720 ha         1 QNB       0.113750
     30 H7           2.1750    -1.8990     2.3130 ha         1 QNB       0.118500
     31 H9           0.8500     1.3060    -1.9040 ha         1 QNB       0.118500
     32 H10          1.7870     3.4810    -2.4520 ha         1 QNB       0.113750
     33 H11          3.1360     4.7270    -0.7880 ha         1 QNB       0.113500
     34 H12          3.5270     3.7380     1.4500 ha         1 QNB       0.113750
     35 H13          2.5870     1.5530     2.0200 ha         1 QNB       0.118500
     36 HO15         0.3320    -0.8690     2.1190 ho         1 QNB       0.454000
     37 H18         -2.1820     0.2100    -1.7870 h1         1 QNB       0.063700
     38 H19         -3.1050    -1.8940    -1.5300 h1         1 QNB       0.068200
     39 H19A        -2.4050    -2.0240     0.0780 h1         1 QNB       0.068200
     40 H21         -5.2590    -0.7190     1.8050 h1         1 QNB       0.054700
     41 H21A        -3.6200    -1.3200     1.9710 h1         1 QNB       0.054700
     42 H22         -4.4690     1.4680     1.6030 hc         1 QNB       0.051450
     43 H22A        -2.8460     0.8780     1.8910 hc         1 QNB       0.051450
     44 H23         -2.9780     2.0430    -0.3190 hc         1 QNB       0.069700
     45 H24         -5.3850     1.6580    -0.7470 hc         1 QNB       0.051450
     46 H24A        -4.4400     1.0730    -2.1010 hc         1 QNB       0.051450
     47 H25         -5.3460    -1.0510    -1.7800 h1         1 QNB       0.054700
     48 H25A        -6.2190    -0.4900    -0.3670 h1         1 QNB       0.054700
@<TRIPOS>BOND
     1     1     2 1   
     2     1     8 1   
     3     1    14 1   
     4     1    15 1   
     5     2     3 ar  
     6     2     7 ar  
     7     3     4 ar  
     8     3    26 1   
     9     4     5 ar  
    10     4    27 1   
    11     5     6 ar  
    12     5    28 1   
    13     6     7 ar  
    14     6    29 1   
    15     7    30 1   
    16     8     9 ar  
    17     8    13 ar  
    18     9    10 ar  
    19     9    31 1   
    20    10    11 ar  
    21    10    32 1   
    22    11    12 ar  
    23    11    33 1   
    24    12    13 ar  
    25    12    34 1   
    26    13    35 1   
    27    14    16 2   
    28    14    17 1   
    29    15    36 1   
    30    17    18 1   
    31    18    19 1   
    32    18    23 1   
    33    18    37 1   
    34    19    20 1   
    35    19    38 1   
    36    19    39 1   
    37    20    21 1   
    38    20    25 1   
    39    21    22 1   
    40    21    40 1   
    41    21    41 1   
    42    22    23 1   
    43    22    42 1   
    44    22    43 1   
    45    23    24 1   
    46    23    44 1   
    47    24    25 1   
    48    24    45 1   
    49    24    46 1   
    50    25    47 1   
    51    25    48 1   
@<TRIPOS>SUBSTRUCTURE
     1 QNB         1 TEMP              0 ****  ****    0 ROOT
