@<TRIPOS>MOLECULE
QNB
   48    51     1     0     0
SMALL
No Charge or Current Charge


@<TRIPOS>ATOM
      1 C1           1.1880     0.0320     0.4210 c3         1 QNB       0.240600
      2 C2           2.2510    -1.0870     0.3240 ca         1 QNB      -0.092800
      3 C3           3.2430    -1.0530    -0.6840 ca         1 QNB      -0.084000
      4 C4           4.2000    -2.0780    -0.7870 ca         1 QNB      -0.114250
      5 C5           4.1750    -3.1580     0.1080 ca         1 QNB      -0.100000
      6 C6           3.1880    -3.2150     1.1030 ca         1 QNB      -0.114250
      7 C7           2.2300    -2.1920     1.2090 ca         1 QNB      -0.084000
      8 C8           1.7880     1.3970     0.0090 ca         1 QNB      -0.092800
      9 C9           1.3260     2.1310    -1.1120 ca         1 QNB      -0.084000
     10 C10          1.9130     3.3630    -1.4510 ca         1 QNB      -0.114250
     11 C11          2.9670     3.8810    -0.6830 ca         1 QNB      -0.100000
     12 C12          3.4380     3.1640     0.4270 ca         1 QNB      -0.114250
     13 C13          2.8530     1.9330     0.7690 ca         1 QNB      -0.084000
     14 C14         -0.0480    -0.3610    -0.4710 c          1 QNB       0.558100
     15 O15          0.7640     0.1700     1.7980 oh         1 QNB      -0.632000
     16 O16          0.0100    -1.0570    -1.4800 o          1 QNB      -0.479000
     17 O17         -1.2050     0.2430    -0.0310 os         1 QNB      -0.421100
     18 C18         -2.4600     0.0270    -0.7140 c6         1 QNB       0.140300
     19 C19         -2.9600    -1.4590    -0.5810 c6         1 QNB       0.131800
     20 N20         -4.3320    -1.5250     0.0250 n3         1 QNB      -0.679600
     21 C21         -4.2960    -0.9260     1.3970 c6         1 QNB       0.145300
     22 C22         -3.8440     0.5680     1.3380 c6         1 QNB      -0.106400
     23 C23         -3.5540     0.9740    -0.1380 c6         1 QNB      -0.065700
     24 C24         -4.8610     0.7360    -0.9500 c6         1 QNB      -0.106400
     25 C25         -5.2940    -0.7610    -0.8300 c6         1 QNB       0.145300
     26 H3           3.2770    -0.2340    -1.4000 ha         1 QNB       0.118500
     27 H4           4.9590    -2.0350    -1.5660 ha         1 QNB       0.113750
     28 H5           4.9150    -3.9510     0.0260 ha         1 QNB       0.113500
     29 H6           3.1610    -4.0560     1.7930 ha         1 QNB       0.113750
     30 H7           1.4690    -2.2660     1.9830 ha         1 QNB       0.118500
     31 H9           0.5160     1.7650    -1.7360 ha         1 QNB       0.118500
     32 H10          1.5490     3.9170    -2.3130 ha         1 QNB       0.113750
     33 H11          3.4200     4.8340    -0.9490 ha         1 QNB       0.113500
     34 H12          4.2560     3.5600     1.0230 ha         1 QNB       0.113750
     35 H13          3.2320     1.3870     1.6310 ha         1 QNB       0.118500
     36 HO15        -0.0680     0.6910     1.7650 ho         1 QNB       0.454000
     37 H18         -2.3180     0.2650    -1.7780 h1         1 QNB       0.063700
     38 H19         -2.9600    -1.9220    -1.5790 h1         1 QNB       0.068200
     39 H19A        -2.2480    -2.0330     0.0310 h1         1 QNB       0.068200
     40 H21         -5.2890    -0.9870     1.8680 h1         1 QNB       0.054700
     41 H21A        -3.6050    -1.4890     2.0420 h1         1 QNB       0.054700
     42 H22         -4.6270     1.2120     1.7610 hc         1 QNB       0.051450
     43 H22A        -2.9530     0.7160     1.9620 hc         1 QNB       0.051450
     44 H23         -3.2370     2.0240    -0.2060 hc         1 QNB       0.069700
     45 H24         -5.6640     1.3880    -0.5800 hc         1 QNB       0.051450
     46 H24A        -4.7080     0.9990    -2.0050 hc         1 QNB       0.051450
     47 H25         -5.3490    -1.2050    -1.8360 h1         1 QNB       0.054700
     48 H25A        -6.3080    -0.8130    -0.4070 h1         1 QNB       0.054700
@<TRIPOS>BOND
     1     1     2 1   
     2     1     8 1   
     3     1    14 1   
     4     1    15 1   
     5     2     3 ar  
     6     2     7 ar  
     7     3     4 ar  
     8     3    26 1   
     9     4     5 ar  
    10     4    27 1   
    11     5     6 ar  
    12     5    28 1   
    13     6     7 ar  
    14     6    29 1   
    15     7    30 1   
    16     8     9 ar  
    17     8    13 ar  
    18     9    10 ar  
    19     9    31 1   
    20    10    11 ar  
    21    10    32 1   
    22    11    12 ar  
    23    11    33 1   
    24    12    13 ar  
    25    12    34 1   
    26    13    35 1   
    27    14    16 2   
    28    14    17 1   
    29    15    36 1   
    30    17    18 1   
    31    18    19 1   
    32    18    23 1   
    33    18    37 1   
    34    19    20 1   
    35    19    38 1   
    36    19    39 1   
    37    20    21 1   
    38    20    25 1   
    39    21    22 1   
    40    21    40 1   
    41    21    41 1   
    42    22    23 1   
    43    22    42 1   
    44    22    43 1   
    45    23    24 1   
    46    23    44 1   
    47    24    25 1   
    48    24    45 1   
    49    24    46 1   
    50    25    47 1   
    51    25    48 1   
@<TRIPOS>SUBSTRUCTURE
     1 QNB         1 TEMP              0 ****  ****    0 ROOT
