@<TRIPOS>MOLECULE
QNC
   19    20     1     0     0
SMALL
abcg2


@<TRIPOS>ATOM
      1 C            2.7910    -0.2720     0.0210 c          1 QNC       0.610500
      2 O            3.6010     0.6750     0.0620 o          1 QNC      -0.698000
      3 N1           0.4150    -0.8300     0.0360 nb         1 QNC      -0.641000
      4 C2           1.3100     0.1250     0.0190 ca         1 QNC       0.303500
      5 C3           0.9540     1.4970    -0.0010 ca         1 QNC      -0.113000
      6 C4          -0.3640     1.8490    -0.0090 ca         1 QNC      -0.122000
      7 C5          -2.7370     1.1090     0.0030 ca         1 QNC      -0.095000
      8 C6          -3.6400     0.0810     0.0210 ca         1 QNC      -0.138000
      9 C7          -3.1940    -1.2580     0.0460 ca         1 QNC      -0.137000
     10 C8          -1.8560    -1.5460     0.0520 ca         1 QNC      -0.075000
     11 C4A         -1.3500     0.8380     0.0090 ca         1 QNC      -0.096000
     12 C8A         -0.8990    -0.5040     0.0330 ca         1 QNC       0.262000
     13 O2           3.0460    -1.4850    -0.0200 o          1 QNC      -0.698000
     14 H3           1.7300     2.2470    -0.0110 ha         1 QNC       0.140000
     15 H4          -0.6620     2.8900    -0.0270 ha         1 QNC       0.093000
     16 H5          -3.0740     2.1380    -0.0170 ha         1 QNC       0.095000
     17 H6          -4.7020     0.2890     0.0160 ha         1 QNC       0.091000
     18 H7          -3.9200    -2.0600     0.0600 ha         1 QNC       0.094000
     19 H8          -1.5050    -2.5710     0.0710 ha         1 QNC       0.124000
@<TRIPOS>BOND
     1     1     2 1   
     2     1     4 1   
     3     1    13 1   
     4     3     4 ar  
     5     3    12 ar  
     6     4     5 ar  
     7     5     6 ar  
     8     5    14 1   
     9     6    11 ar  
    10     6    15 1   
    11     7     8 ar  
    12     7    11 ar  
    13     7    16 1   
    14     8     9 ar  
    15     8    17 1   
    16     9    10 ar  
    17     9    18 1   
    18    10    12 ar  
    19    10    19 1   
    20    11    12 ar  
@<TRIPOS>SUBSTRUCTURE
     1 QNC         1 TEMP              0 ****  ****    0 ROOT
