@<TRIPOS>MOLECULE
QNC
   19    20     1     0     0
SMALL
No Charge or Current Charge


@<TRIPOS>ATOM
      1 C            2.8610    -0.2400     0.0220 c          1 QNC       0.610500
      2 O            3.6920     0.6640     0.0090 o          1 QNC      -0.698000
      3 N1           0.4030    -0.8670     0.0330 nb         1 QNC      -0.641000
      4 C2           1.3490     0.1280     0.0180 ca         1 QNC       0.303500
      5 C3           0.9640     1.4900    -0.0010 ca         1 QNC      -0.113000
      6 C4          -0.3950     1.8360    -0.0050 ca         1 QNC      -0.122000
      7 C5          -2.7220     1.1160     0.0070 ca         1 QNC      -0.095000
      8 C6          -3.6750     0.0850     0.0230 ca         1 QNC      -0.138000
      9 C7          -3.2570    -1.2540     0.0420 ca         1 QNC      -0.137000
     10 C8          -1.8840    -1.5620     0.0450 ca         1 QNC      -0.075000
     11 C4A         -1.3490     0.8060     0.0100 ca         1 QNC      -0.096000
     12 C8A         -0.9120    -0.5430     0.0300 ca         1 QNC       0.262000
     13 O2           3.1970    -1.4210     0.0390 o          1 QNC      -0.698000
     14 H3           1.7180     2.2720    -0.0130 ha         1 QNC       0.140000
     15 H4          -0.6980     2.8810    -0.0200 ha         1 QNC       0.093000
     16 H5          -3.0520     2.1520    -0.0080 ha         1 QNC       0.095000
     17 H6          -4.7360     0.3250     0.0200 ha         1 QNC       0.091000
     18 H7          -3.9930    -2.0550     0.0540 ha         1 QNC       0.094000
     19 H8          -1.5680    -2.6020     0.0600 ha         1 QNC       0.124000
@<TRIPOS>BOND
     1     1     2 1   
     2     1     4 1   
     3     1    13 1   
     4     3     4 ar  
     5     3    12 ar  
     6     4     5 ar  
     7     5     6 ar  
     8     5    14 1   
     9     6    11 ar  
    10     6    15 1   
    11     7     8 ar  
    12     7    11 ar  
    13     7    16 1   
    14     8     9 ar  
    15     8    17 1   
    16     9    10 ar  
    17     9    18 1   
    18    10    12 ar  
    19    10    19 1   
    20    11    12 ar  
@<TRIPOS>SUBSTRUCTURE
     1 QNC         1 TEMP              0 ****  ****    0 ROOT
