@<TRIPOS>MOLECULE
QNF
   42    45     1     0     0
SMALL
No Charge or Current Charge


@<TRIPOS>ATOM
      1 C18        -49.6280   -29.3290     6.2790 ca         1 QNF      -0.082000
      2 C16        -49.7370   -29.4620     3.8480 ca         1 QNF      -0.056000
      3 C17        -50.3840   -29.4260     5.0930 ca         1 QNF       0.055100
      4 C15        -48.3240   -29.4250     3.7660 ca         1 QNF      -0.120600
      5 C14        -47.6630   -29.4740     2.4020 c          1 QNF       0.602700
      6 C12        -45.5820   -29.5900     1.1110 c5         1 QNF       0.166000
      7 C11        -45.3380   -28.2600     0.4350 ca         1 QNF      -0.065300
      8 C10        -46.2220   -27.5780    -0.4180 ca         1 QNF      -0.112000
      9 C20        -51.6890   -29.2740     7.6290 c          1 QNF       0.540000
     10 C02        -43.9130   -30.9250     2.6890 c          1 QNF       0.719000
     11 C03        -44.0820   -29.9820     1.4660 c5         1 QNF      -0.204700
     12 C04        -43.3130   -28.6160     1.6740 c5         1 QNF      -0.014100
     13 C05        -44.0990   -27.7260     0.7440 ca         1 QNF      -0.091300
     14 C06        -43.6980   -26.4850     0.2170 ca         1 QNF       0.117100
     15 C08        -44.5720   -25.7900    -0.6380 ca         1 QNF      -0.206000
     16 C09        -45.8330   -26.3360    -0.9570 ca         1 QNF      -0.101000
     17 C21        -52.3720   -29.9080     6.3990 c6         1 QNF       0.079600
     18 C24        -48.2280   -29.2820     6.2170 ca         1 QNF      -0.137000
     19 C25        -47.5770   -29.3360     4.9700 ca         1 QNF      -0.055000
     20 N13        -46.2850   -29.4800     2.3880 ns         1 QNF      -0.478900
     21 N19        -50.3180   -29.2200     7.5050 ns         1 QNF      -0.136000
     22 O01        -43.4410   -32.0360     2.5020 o          1 QNF      -0.724500
     23 O07        -42.4810   -25.9540     0.5260 oh         1 QNF      -0.539100
     24 O22        -51.7660   -29.4590     5.1530 os         1 QNF      -0.336100
     25 O23        -52.2970   -28.8070     8.5870 o          1 QNF      -0.558000
     26 O26        -48.3220   -29.5080     1.3690 o          1 QNF      -0.659100
     27 O27        -44.2090   -30.5300     3.8090 o          1 QNF      -0.724500
     28 H161       -50.3400   -29.5260     2.9450 ha         1 QNF       0.149000
     29 H121       -46.0410   -30.3240     0.4340 h1         1 QNF       0.066700
     30 H101       -47.1940   -28.0010    -0.6580 ha         1 QNF       0.133000
     31 H031       -43.6690   -30.4980     0.5920 hc         1 QNF       0.053700
     32 H041       -43.3690   -28.2510     2.7060 hc         1 QNF       0.061200
     33 H042       -42.2530   -28.6950     1.4070 hc         1 QNF       0.061200
     34 H081       -44.2830   -24.8290    -1.0580 ha         1 QNF       0.094000
     35 H091       -46.5080   -25.7970    -1.6180 ha         1 QNF       0.097000
     36 H211       -53.4400   -29.6530     6.4110 h1         1 QNF       0.078700
     37 H212       -52.2550   -30.9960     6.4850 h1         1 QNF       0.078700
     38 H241       -47.6420   -29.1970     7.1290 ha         1 QNF       0.117000
     39 H251       -46.4910   -29.2940     4.9630 ha         1 QNF       0.147000
     40 H131       -45.7980   -29.5490     3.2760 hn         1 QNF       0.381500
     41 H191       -49.7950   -28.8680     8.2970 hn         1 QNF       0.160000
     42 H071       -42.3960   -25.0940     0.0630 ho         1 QNF       0.445000
@<TRIPOS>BOND
     1     1     3 ar  
     2     1    18 ar  
     3     1    21 1   
     4     2     3 ar  
     5     2     4 ar  
     6     2    28 1   
     7     3    24 1   
     8     4     5 1   
     9     4    19 ar  
    10     5    20 1   
    11     5    26 2   
    12     6     7 1   
    13     6    11 1   
    14     6    20 1   
    15     6    29 1   
    16     7     8 ar  
    17     7    13 ar  
    18     8    16 ar  
    19     8    30 1   
    20     9    17 1   
    21     9    21 1   
    22     9    25 2   
    23    10    11 1   
    24    10    22 1   
    25    10    27 1   
    26    11    12 1   
    27    11    31 1   
    28    12    13 1   
    29    12    32 1   
    30    12    33 1   
    31    13    14 ar  
    32    14    15 ar  
    33    14    23 1   
    34    15    16 ar  
    35    15    34 1   
    36    16    35 1   
    37    17    24 1   
    38    17    36 1   
    39    17    37 1   
    40    18    19 ar  
    41    18    38 1   
    42    19    39 1   
    43    20    40 1   
    44    21    41 1   
    45    23    42 1   
@<TRIPOS>SUBSTRUCTURE
     1 QNF         1 TEMP              0 ****  ****    0 ROOT
