@<TRIPOS>MOLECULE
QNF
   42    45     1     0     0
SMALL
abcg2


@<TRIPOS>ATOM
      1 C18        -49.6820   -29.0450     6.2150 ca         1 QNF      -0.082000
      2 C16        -49.7370   -29.5400     3.8540 ca         1 QNF      -0.056000
      3 C17        -50.3730   -29.4820     5.0790 ca         1 QNF       0.055100
      4 C15        -48.3930   -29.1800     3.7410 ca         1 QNF      -0.120600
      5 C14        -47.7530   -29.2710     2.3890 c          1 QNF       0.602700
      6 C12        -45.6400   -29.5470     1.1550 c5         1 QNF       0.166000
      7 C11        -45.3520   -28.2290     0.4570 ca         1 QNF      -0.065300
      8 C10        -46.2060   -27.4580    -0.3230 ca         1 QNF      -0.112000
      9 C20        -51.5790   -29.5600     7.6280 c          1 QNF       0.540000
     10 C02        -44.1010   -31.0190     2.6960 c          1 QNF       0.719000
     11 C03        -44.2120   -30.0830     1.4760 c5         1 QNF      -0.204700
     12 C04        -43.3260   -28.8180     1.5890 c5         1 QNF      -0.014100
     13 C05        -44.0490   -27.8200     0.7290 ca         1 QNF      -0.091300
     14 C06        -43.5850   -26.6090     0.2240 ca         1 QNF       0.117100
     15 C08        -44.4300   -25.8270    -0.5650 ca         1 QNF      -0.206000
     16 C09        -45.7280   -26.2530    -0.8330 ca         1 QNF      -0.101000
     17 C21        -52.1150   -30.3250     6.4310 c6         1 QNF       0.079600
     18 C24        -48.3460   -28.6800     6.1060 ca         1 QNF      -0.137000
     19 C25        -47.7040   -28.7480     4.8780 ca         1 QNF      -0.055000
     20 N13        -46.4140   -29.3520     2.3780 ns         1 QNF      -0.478900
     21 N19        -50.3830   -28.9570     7.4220 ns         1 QNF      -0.136000
     22 O01        -43.6900   -32.1840     2.4990 o          1 QNF      -0.724500
     23 O07        -42.3030   -26.2390     0.5220 oh         1 QNF      -0.539100
     24 O22        -51.7040   -29.7860     5.1720 os         1 QNF      -0.336100
     25 O23        -52.1670   -29.5390     8.6990 o          1 QNF      -0.558000
     26 O26        -48.4380   -29.2760     1.3580 o          1 QNF      -0.659100
     27 O27        -44.4270   -30.5290     3.8180 o          1 QNF      -0.724500
     28 H161       -50.2870   -29.8660     2.9820 ha         1 QNF       0.149000
     29 H121       -46.1870   -30.2370     0.5110 h1         1 QNF       0.066700
     30 H101       -47.2170   -27.7860    -0.5240 ha         1 QNF       0.133000
     31 H031       -43.8930   -30.6400     0.5960 hc         1 QNF       0.053700
     32 H041       -43.2740   -28.4720     2.6250 hc         1 QNF       0.061200
     33 H042       -42.3040   -29.0080     1.2570 hc         1 QNF       0.061200
     34 H081       -44.0650   -24.8880    -0.9680 ha         1 QNF       0.094000
     35 H091       -46.3680   -25.6360    -1.4510 ha         1 QNF       0.097000
     36 H211       -53.2010   -30.2900     6.4480 h1         1 QNF       0.078700
     37 H212       -51.7870   -31.3670     6.5210 h1         1 QNF       0.078700
     38 H241       -47.8190   -28.3290     6.9850 ha         1 QNF       0.117000
     39 H251       -46.6700   -28.4420     4.8130 ha         1 QNF       0.147000
     40 H131       -45.8930   -29.5620     3.2310 hn         1 QNF       0.381500
     41 H191       -49.9450   -28.5000     8.2120 hn         1 QNF       0.160000
     42 H071       -42.1010   -25.3890     0.1070 ho         1 QNF       0.445000
@<TRIPOS>BOND
     1     1     3 ar  
     2     1    18 ar  
     3     1    21 1   
     4     2     3 ar  
     5     2     4 ar  
     6     2    28 1   
     7     3    24 1   
     8     4     5 1   
     9     4    19 ar  
    10     5    20 1   
    11     5    26 2   
    12     6     7 1   
    13     6    11 1   
    14     6    20 1   
    15     6    29 1   
    16     7     8 ar  
    17     7    13 ar  
    18     8    16 ar  
    19     8    30 1   
    20     9    17 1   
    21     9    21 1   
    22     9    25 2   
    23    10    11 1   
    24    10    22 1   
    25    10    27 1   
    26    11    12 1   
    27    11    31 1   
    28    12    13 1   
    29    12    32 1   
    30    12    33 1   
    31    13    14 ar  
    32    14    15 ar  
    33    14    23 1   
    34    15    16 ar  
    35    15    34 1   
    36    16    35 1   
    37    17    24 1   
    38    17    36 1   
    39    17    37 1   
    40    18    19 ar  
    41    18    38 1   
    42    19    39 1   
    43    20    40 1   
    44    21    41 1   
    45    23    42 1   
@<TRIPOS>SUBSTRUCTURE
     1 QNF         1 TEMP              0 ****  ****    0 ROOT
