@<TRIPOS>MOLECULE
QNG
   96   102     1     0     0
SMALL
No Charge or Current Charge


@<TRIPOS>ATOM
      1 C01         26.4110   -13.0930     0.1380 c3         1 QNG       0.065400
      2 C02         24.4100   -15.2000     2.4520 ca         1 QNG       0.476000
      3 C03         25.2540   -15.4600     3.5420 ca         1 QNG      -0.132000
      4 C04         26.5530   -14.9310     3.5350 ca         1 QNG      -0.053000
      5 C05         26.0420   -13.9490     1.3680 ca         1 QNG       0.336300
      6 C07         28.3430   -13.5710     2.4030 cp         1 QNG      -0.077000
      7 C08         29.4440   -14.0200     1.6260 ca         1 QNG       0.031800
      8 C09         30.6220   -13.3570     1.5190 ca         1 QNG      -0.242900
      9 C10         30.8670   -12.1840     2.2420 ca         1 QNG       0.211000
     10 C11         29.8360   -11.7100     3.0780 ca         1 QNG      -0.150000
     11 C12         28.5940   -12.3890     3.1530 ca         1 QNG      -0.047000
     12 C13         26.9790   -14.1710     2.4230 cp         1 QNG      -0.079000
     13 C16         31.3820   -14.1290     0.5780 cc         1 QNG       0.612800
     14 C19         26.2630   -11.5810     0.4290 c3         1 QNG      -0.041100
     15 C20         26.9790   -10.7150    -0.5990 ca         1 QNG      -0.034300
     16 C21         28.3860   -10.7140    -0.6620 ca         1 QNG      -0.162500
     17 C22         29.0520    -9.9220    -1.6100 ca         1 QNG       0.202500
     18 C23         28.3270    -9.1180    -2.4990 ca         1 QNG      -0.180000
     19 C24         26.9270    -9.1080    -2.4320 ca         1 QNG       0.202500
     20 C25         26.2520    -9.9020    -1.4910 ca         1 QNG      -0.162500
     21 C30         25.0610   -14.7660    -3.0800 c3         1 QNG       0.000600
     22 C31         27.1640   -14.2610    -5.9580 cc         1 QNG      -0.095300
     23 C32         26.5800   -13.7690    -4.8830 cd         1 QNG      -0.233300
     24 C35         26.7210   -15.5870    -6.1160 cc         1 QNG       0.178300
     25 C36         28.1840   -13.4670    -6.6090 cx         1 QNG      -0.020400
     26 C37         28.3530   -12.2890    -5.6520 cx         1 QNG      -0.192700
     27 C38         27.2650   -12.4750    -4.5270 c5         1 QNG       0.287300
     28 C39         27.8510   -12.0650    -7.0680 cx         1 QNG      -0.089400
     29 C40         27.1980   -16.4990    -7.2340 c3         1 QNG       0.293700
     30 C44         23.0770   -15.7220     2.4110 cg         1 QNG      -0.195000
     31 C45         21.9450   -16.1610     2.3590 c1         1 QNG      -0.099100
     32 C46         20.5600   -16.6590     2.2530 c3         1 QNG      -0.124900
     33 C49         33.5570   -15.7040     1.8600 c3         1 QNG      -0.398100
     34 C54         19.5900   -15.6040     2.8610 c3         1 QNG      -0.076100
     35 C56         20.4380   -17.9970     3.0380 c3         1 QNG      -0.076100
     36 C58         20.4290   -15.3890    -0.3760 c3         1 QNG      -0.325100
     37 C60         28.9430   -17.3390     1.9540 c3         1 QNG       0.273000
     38 F26         26.2220    -8.3320    -3.2830 f          1 QNG      -0.172500
     39 F27         30.4010    -9.9360    -1.6650 f          1 QNG      -0.172500
     40 F41         27.8820   -12.5360    -3.2820 f          1 QNG      -0.102000
     41 F42         26.3820   -11.4000    -4.5090 f          1 QNG      -0.102000
     42 F52         26.5050   -17.6620    -7.2830 f          1 QNG      -0.105000
     43 F53         27.0690   -15.9120    -8.4460 f          1 QNG      -0.105000
     44 F61         30.0900   -18.0060     1.6940 f          1 QNG      -0.110333
     45 F62         29.0790   -16.7380     3.1580 f          1 QNG      -0.110333
     46 F63         27.9490   -18.2500     2.0580 f          1 QNG      -0.110333
     47 F64         28.5040   -16.8230    -7.0850 f          1 QNG      -0.105000
     48 N06         24.7840   -14.4560     1.3910 nb         1 QNG      -0.659000
     49 N14         29.5210   -15.1450     0.8110 na         1 QNG       0.082600
     50 N15         30.7390   -15.2090     0.1370 nd         1 QNG      -0.543100
     51 N17         32.6040   -13.8050     0.1180 nu         1 QNG      -0.818300
     52 N33         25.8340   -14.7970    -4.3230 na         1 QNG       0.199800
     53 N34         25.8810   -15.9370    -5.1380 nd         1 QNG      -0.457800
     54 N43         25.6810   -13.4570    -1.0930 ns         1 QNG      -0.491900
     55 O29         26.8470   -15.3520    -1.5640 o          1 QNG      -0.571100
     56 O50         33.8880   -15.7460    -0.7770 o          1 QNG      -0.530500
     57 O51         35.0140   -13.9140     0.5760 o          1 QNG      -0.530500
     58 O57         18.7360   -17.2750     0.3530 o          1 QNG      -0.512500
     59 O59         21.1470   -17.9100    -0.0780 o          1 QNG      -0.512500
     60 S48         33.8810   -14.8110     0.3500 s6         1 QNG       1.278100
     61 S55         20.1670   -16.9580     0.4650 s6         1 QNG       1.068000
     62 Cl47        32.3910   -11.3130     2.1310 cl         1 QNG      -0.182000
     63 H1          27.4730   -13.2790    -0.0670 h1         1 QNG       0.102700
     64 H2          24.9020   -16.0580     4.3780 ha         1 QNG       0.141000
     65 H3          27.2230   -15.1050     4.3740 ha         1 QNG       0.140000
     66 H4          29.9910   -10.8030     3.6550 ha         1 QNG       0.139000
     67 H5          27.8050   -11.9800     3.7810 ha         1 QNG       0.123000
     68 H6          27.5820   -16.0170     0.9010 h1         1 QNG       0.110200
     69 H7          28.7320   -16.8360    -0.1260 h1         1 QNG       0.110200
     70 H8          26.6750   -11.3600     1.4200 hc         1 QNG       0.064200
     71 H9          25.1980   -11.3260     0.4890 hc         1 QNG       0.064200
     72 H10         28.9670   -11.3270     0.0210 ha         1 QNG       0.133000
     73 H11         28.8450    -8.5060    -3.2310 ha         1 QNG       0.154000
     74 H12         25.1660    -9.8820    -1.4590 ha         1 QNG       0.133000
     75 H13         24.3360   -13.9480    -3.1380 h1         1 QNG       0.098200
     76 H14         24.5160   -15.7070    -2.9580 h1         1 QNG       0.098200
     77 H15         29.0750   -13.9790    -6.9680 hc         1 QNG       0.121700
     78 H16         29.3570   -11.9570    -5.3970 hc         1 QNG       0.120700
     79 H17         28.5280   -11.5960    -7.7780 hc         1 QNG       0.087700
     80 H18         26.8030   -11.8150    -7.2170 hc         1 QNG       0.087700
     81 H19         33.3860   -14.9710     2.6540 h1         1 QNG       0.108700
     82 H20         32.6800   -16.3390     1.6980 h1         1 QNG       0.108700
     83 H21         34.4430   -16.3120     2.0680 h1         1 QNG       0.108700
     84 H22         19.6810   -14.6330     2.3610 hc         1 QNG       0.059033
     85 H23         18.5460   -15.9320     2.7790 hc         1 QNG       0.059033
     86 H24         19.8030   -15.4470     3.9260 hc         1 QNG       0.059033
     87 H25         19.4180   -18.3970     2.9780 hc         1 QNG       0.059033
     88 H26         21.1230   -18.7570     2.6420 hc         1 QNG       0.059033
     89 H27         20.6770   -17.8530     4.1000 hc         1 QNG       0.059033
     90 H28         19.7290   -14.6580     0.0400 h1         1 QNG       0.105367
     91 H29         21.4680   -15.0850    -0.2120 h1         1 QNG       0.105367
     92 H30         20.2340   -15.5530    -1.4400 h1         1 QNG       0.105367
     93 H31         32.9450   -12.9380     0.4960 hn         1 QNG       0.515000
     94 H32         24.9050   -12.8730    -1.3810 hn         1 QNG       0.329500
     95 C18         28.6270   -16.3230     0.8370 c3         1 QNG       0.042600
     96 C28         25.9510   -14.5740    -1.8560 c          1 QNG       0.577100
@<TRIPOS>BOND
     1     1     5 1   
     2     1    14 1   
     3     1    54 1   
     4     1    63 1   
     5     2     3 ar  
     6     2    30 1   
     7     2    48 ar  
     8     3     4 ar  
     9     3    64 1   
    10     4    12 ar  
    11     4    65 1   
    12     5    12 ar  
    13     5    48 ar  
    14     6     7 ar  
    15     6    11 ar  
    16     6    12 1   
    17     7     8 ar  
    18     7    49 1   
    19     8     9 ar  
    20     8    13 1   
    21     9    10 ar  
    22     9    62 1   
    23    10    11 ar  
    24    10    66 1   
    25    11    67 1   
    26    13    50 2   
    27    13    51 1   
    28    14    15 1   
    29    14    70 1   
    30    14    71 1   
    31    15    16 ar  
    32    15    20 ar  
    33    16    17 ar  
    34    16    72 1   
    35    17    18 ar  
    36    17    39 1   
    37    18    19 ar  
    38    18    73 1   
    39    19    20 ar  
    40    19    38 1   
    41    20    74 1   
    42    21    52 1   
    43    21    75 1   
    44    21    76 1   
    45    21    96 1   
    46    22    23 2   
    47    22    24 1   
    48    22    25 1   
    49    23    27 1   
    50    23    52 1   
    51    24    29 1   
    52    24    53 2   
    53    25    26 1   
    54    25    28 1   
    55    25    77 1   
    56    26    27 1   
    57    26    28 1   
    58    26    78 1   
    59    27    40 1   
    60    27    41 1   
    61    28    79 1   
    62    28    80 1   
    63    29    42 1   
    64    29    43 1   
    65    29    47 1   
    66    30    31 3   
    67    31    32 1   
    68    32    34 1   
    69    32    35 1   
    70    32    61 1   
    71    33    60 1   
    72    33    81 1   
    73    33    82 1   
    74    33    83 1   
    75    34    84 1   
    76    34    85 1   
    77    34    86 1   
    78    35    87 1   
    79    35    88 1   
    80    35    89 1   
    81    36    61 1   
    82    36    90 1   
    83    36    91 1   
    84    36    92 1   
    85    37    44 1   
    86    37    45 1   
    87    37    46 1   
    88    37    95 1   
    89    49    50 1   
    90    49    95 1   
    91    51    60 1   
    92    51    93 1   
    93    52    53 1   
    94    54    94 1   
    95    54    96 1   
    96    55    96 2   
    97    56    60 2   
    98    57    60 2   
    99    58    61 2   
   100    59    61 2   
   101    68    95 1   
   102    69    95 1   
@<TRIPOS>SUBSTRUCTURE
     1 QNG         1 TEMP              0 ****  ****    0 ROOT
