@<TRIPOS>MOLECULE
QNG
   96   102     1     0     0
SMALL
abcg2


@<TRIPOS>ATOM
      1 C01         26.2310   -12.9300     0.1920 c3         1 QNG       0.065400
      2 C02         24.2940   -15.0880     2.4410 ca         1 QNG       0.476000
      3 C03         25.1380   -15.3180     3.5300 ca         1 QNG      -0.132000
      4 C04         26.4120   -14.7780     3.5020 ca         1 QNG      -0.053000
      5 C05         25.8910   -13.8210     1.3720 ca         1 QNG       0.336300
      6 C07         28.1820   -13.4410     2.3310 cp         1 QNG      -0.077000
      7 C08         29.2350   -14.0250     1.6040 ca         1 QNG       0.031800
      8 C09         30.4930   -13.3840     1.4730 ca         1 QNG      -0.242900
      9 C10         30.7060   -12.1520     2.0960 ca         1 QNG       0.211000
     10 C11         29.6960   -11.5820     2.8370 ca         1 QNG      -0.150000
     11 C12         28.4520   -12.2330     2.9420 ca         1 QNG      -0.047000
     12 C13         26.8190   -14.0270     2.4040 cp         1 QNG      -0.079000
     13 C16         31.2550   -14.2670     0.6500 cc         1 QNG       0.612800
     14 C19         25.6680   -11.5120     0.4210 c3         1 QNG      -0.041100
     15 C20         26.1960   -10.5360    -0.5920 ca         1 QNG      -0.034300
     16 C21         27.4280    -9.9130    -0.3770 ca         1 QNG      -0.162500
     17 C22         27.9170    -9.0520    -1.3390 ca         1 QNG       0.202500
     18 C23         27.2500    -8.7750    -2.5170 ca         1 QNG      -0.180000
     19 C24         26.0330    -9.4160    -2.6990 ca         1 QNG       0.202500
     20 C25         25.4920   -10.2830    -1.7700 ca         1 QNG      -0.162500
     21 C30         25.9240   -14.5020    -3.2520 c3         1 QNG       0.000600
     22 C31         28.5440   -14.6140    -5.7510 cc         1 QNG      -0.095300
     23 C32         27.6900   -13.9050    -4.9430 cd         1 QNG      -0.233300
     24 C35         28.2280   -15.9480    -5.4950 cc         1 QNG       0.178300
     25 C36         29.3470   -13.7090    -6.6010 cx         1 QNG      -0.020400
     26 C37         28.8870   -12.3130    -6.1960 cx         1 QNG      -0.192700
     27 C38         27.8600   -12.4310    -5.0780 c5         1 QNG       0.287300
     28 C39         28.5220   -12.8750    -7.5550 cx         1 QNG      -0.089400
     29 C40         28.8370   -17.1840    -6.0590 c3         1 QNG       0.293700
     30 C44         22.9820   -15.6520     2.4120 cg         1 QNG      -0.195000
     31 C45         21.8750   -16.1250     2.4150 c1         1 QNG      -0.099100
     32 C46         20.5420   -16.6960     2.4290 c3         1 QNG      -0.124900
     33 C49         33.5680   -16.5580     0.5440 c3         1 QNG      -0.398100
     34 C54         19.9060   -16.6300     3.8210 c3         1 QNG      -0.076100
     35 C56         20.5630   -18.1210     1.8890 c3         1 QNG      -0.076100
     36 C58         19.5180   -14.0370     1.8330 c3         1 QNG      -0.325100
     37 C60         28.5400   -17.3990     1.6250 c3         1 QNG       0.273000
     38 F26         25.3470    -9.1790    -3.8390 f          1 QNG      -0.172500
     39 F27         29.1070    -8.4400    -1.1190 f          1 QNG      -0.172500
     40 F41         28.3320   -11.8430    -3.9220 f          1 QNG      -0.102000
     41 F42         26.6830   -11.7740    -5.3440 f          1 QNG      -0.102000
     42 F52         27.9520   -17.9580    -6.7190 f          1 QNG      -0.105000
     43 F53         29.8110   -16.8810    -6.9230 f          1 QNG      -0.105000
     44 F61         29.7020   -18.0400     1.4480 f          1 QNG      -0.110333
     45 F62         28.5050   -17.0120     2.9120 f          1 QNG      -0.110333
     46 F63         27.5580   -18.2980     1.4380 f          1 QNG      -0.110333
     47 F64         29.3770   -17.9650    -5.1080 f          1 QNG      -0.105000
     48 N06         24.6670   -14.3400     1.3910 nb         1 QNG      -0.659000
     49 N14         29.3200   -15.1820     0.8880 na         1 QNG       0.082600
     50 N15         30.5550   -15.3220     0.3220 nd         1 QNG      -0.543100
     51 N17         32.5600   -14.0560     0.2170 nu         1 QNG      -0.818300
     52 N33         26.9030   -14.7770    -4.2800 na         1 QNG       0.199800
     53 N34         27.2450   -16.0340    -4.5920 nd         1 QNG      -0.457800
     54 N43         25.7690   -13.4710    -1.0710 ns         1 QNG      -0.491900
     55 O29         27.7950   -14.2300    -1.7590 o          1 QNG      -0.571100
     56 O50         32.8360   -15.5920    -1.7440 o          1 QNG      -0.530500
     57 O51         34.7860   -14.5510    -0.6340 o          1 QNG      -0.530500
     58 O57         18.1230   -16.2260     1.3650 o          1 QNG      -0.512500
     59 O59         20.1030   -15.7690    -0.0620 o          1 QNG      -0.512500
     60 S48         33.4940   -15.1840    -0.5460 s6         1 QNG       1.278100
     61 S55         19.4830   -15.7230     1.2480 s6         1 QNG       1.068000
     62 CL47        32.2400   -11.3300     1.9400 cl         1 QNG      -0.182000
     63 H1          27.3120   -12.8530     0.1080 h1         1 QNG       0.102700
     64 H2          24.7970   -15.9150     4.3670 ha         1 QNG       0.141000
     65 H3          27.0980   -14.9490     4.3210 ha         1 QNG       0.140000
     66 H4          29.8520   -10.6330     3.3230 ha         1 QNG       0.139000
     67 H5          27.6640   -11.7520     3.5040 ha         1 QNG       0.123000
     68 H6          27.3520   -15.8550     0.8210 h1         1 QNG       0.110200
     69 H7          28.4420   -16.5930    -0.3400 h1         1 QNG       0.110200
     70 H8          25.9580   -11.1950     1.4240 hc         1 QNG       0.064200
     71 H9          24.5780   -11.5520     0.3890 hc         1 QNG       0.064200
     72 H10         28.0030   -10.0960     0.5240 ha         1 QNG       0.133000
     73 H11         27.6530    -8.0980    -3.2570 ha         1 QNG       0.154000
     74 H12         24.5360   -10.7520    -1.9660 ha         1 QNG       0.133000
     75 H13         25.2300   -13.7390    -3.6060 h1         1 QNG       0.098200
     76 H14         25.3650   -15.4190    -3.0690 h1         1 QNG       0.098200
     77 H15         30.3890   -13.9110    -6.8210 hc         1 QNG       0.121700
     78 H16         29.5810   -11.4830    -6.1260 hc         1 QNG       0.120700
     79 H17         29.0300   -12.4380    -8.4040 hc         1 QNG       0.087700
     80 H18         27.4870   -13.1770    -7.7350 hc         1 QNG       0.087700
     81 H19         34.0610   -16.2290     1.4480 h1         1 QNG       0.108700
     82 H20         32.5590   -16.9070     0.7460 h1         1 QNG       0.108700
     83 H21         34.1350   -17.3120     0.0520 h1         1 QNG       0.108700
     84 H22         19.8330   -15.6410     4.1870 hc         1 QNG       0.059033
     85 H23         18.9220   -17.0540     3.8050 hc         1 QNG       0.059033
     86 H24         20.5270   -17.1940     4.4860 hc         1 QNG       0.059033
     87 H25         19.5490   -18.5070     1.8900 hc         1 QNG       0.059033
     88 H26         20.9780   -18.1660     0.9000 hc         1 QNG       0.059033
     89 H27         21.1780   -18.7320     2.5410 hc         1 QNG       0.059033
     90 H28         19.0400   -13.9840     2.7880 h1         1 QNG       0.105367
     91 H29         20.5550   -13.6840     1.8900 h1         1 QNG       0.105367
     92 H30         18.9430   -13.4740     1.0860 h1         1 QNG       0.105367
     93 H31         33.1080   -13.4190     0.7690 hn         1 QNG       0.515000
     94 H32         24.7880   -13.3770    -1.3040 hn         1 QNG       0.329500
     95 C18         28.3570   -16.2290     0.6780 c3         1 QNG       0.042600
     96 C28         26.5980   -14.0540    -1.9530 c          1 QNG       0.577100
@<TRIPOS>BOND
     1     1     5 1   
     2     1    14 1   
     3     1    54 1   
     4     1    63 1   
     5     2     3 ar  
     6     2    30 1   
     7     2    48 ar  
     8     3     4 ar  
     9     3    64 1   
    10     4    12 ar  
    11     4    65 1   
    12     5    12 ar  
    13     5    48 ar  
    14     6     7 ar  
    15     6    11 ar  
    16     6    12 1   
    17     7     8 ar  
    18     7    49 1   
    19     8     9 ar  
    20     8    13 1   
    21     9    10 ar  
    22     9    62 1   
    23    10    11 ar  
    24    10    66 1   
    25    11    67 1   
    26    13    50 2   
    27    13    51 1   
    28    14    15 1   
    29    14    70 1   
    30    14    71 1   
    31    15    16 ar  
    32    15    20 ar  
    33    16    17 ar  
    34    16    72 1   
    35    17    18 ar  
    36    17    39 1   
    37    18    19 ar  
    38    18    73 1   
    39    19    20 ar  
    40    19    38 1   
    41    20    74 1   
    42    21    52 1   
    43    21    75 1   
    44    21    76 1   
    45    21    96 1   
    46    22    23 2   
    47    22    24 1   
    48    22    25 1   
    49    23    27 1   
    50    23    52 1   
    51    24    29 1   
    52    24    53 2   
    53    25    26 1   
    54    25    28 1   
    55    25    77 1   
    56    26    27 1   
    57    26    28 1   
    58    26    78 1   
    59    27    40 1   
    60    27    41 1   
    61    28    79 1   
    62    28    80 1   
    63    29    42 1   
    64    29    43 1   
    65    29    47 1   
    66    30    31 3   
    67    31    32 1   
    68    32    34 1   
    69    32    35 1   
    70    32    61 1   
    71    33    60 1   
    72    33    81 1   
    73    33    82 1   
    74    33    83 1   
    75    34    84 1   
    76    34    85 1   
    77    34    86 1   
    78    35    87 1   
    79    35    88 1   
    80    35    89 1   
    81    36    61 1   
    82    36    90 1   
    83    36    91 1   
    84    36    92 1   
    85    37    44 1   
    86    37    45 1   
    87    37    46 1   
    88    37    95 1   
    89    49    50 1   
    90    49    95 1   
    91    51    60 1   
    92    51    93 1   
    93    52    53 1   
    94    54    94 1   
    95    54    96 1   
    96    55    96 2   
    97    56    60 2   
    98    57    60 2   
    99    58    61 2   
   100    59    61 2   
   101    68    95 1   
   102    69    95 1   
@<TRIPOS>SUBSTRUCTURE
     1 QNG         1 TEMP              0 ****  ****    0 ROOT
