@<TRIPOS>MOLECULE
QNH
   62    66     1     0     0
SMALL
abcg2


@<TRIPOS>ATOM
      1 C1          18.0690    -9.6920    12.3570 c6         1 QNH       0.202500
      2 C2          19.0460    -9.6080    13.5200 c6         1 QNH      -0.028100
      3 C3          20.1910   -10.5480    13.3080 ca         1 QNH       0.023700
      4 C7          22.5250   -11.1820    13.6490 ca         1 QNH      -0.034200
      5 C8          21.4500   -10.3160    13.8930 ca         1 QNH      -0.230900
      6 C9          21.9930    -9.3260    14.7560 cc         1 QNH       0.353800
      7 C10         18.7390   -12.0030    11.8350 c6         1 QNH       0.224500
      8 C12         15.2790   -11.5680    12.3540 c3         1 QNH       0.294000
      9 C13         18.3580   -13.4240    12.1960 ca         1 QNH       0.281300
     10 C14         18.1540   -14.3890    11.2170 ca         1 QNH      -0.118000
     11 C15         17.8370   -15.6830    11.5860 ca         1 QNH      -0.162000
     12 C16         17.7290   -16.0030    12.9420 ca         1 QNH       0.278000
     13 C19         16.8910   -19.0890    14.9850 cy         1 QNH       0.135800
     14 C20         18.1500   -17.6340    15.7900 cy         1 QNH       0.135800
     15 C22         17.7690   -21.2170    17.0520 c3         1 QNH      -0.071400
     16 C23         16.7370   -21.0680    18.1610 c3         1 QNH      -0.083100
     17 N5          17.5790   -18.8950    16.2620 nq         1 QNH      -0.706600
     18 C18         17.0690   -17.5940    14.6930 cy         1 QNH       0.187500
     19 N4          17.4680   -17.2810    13.3520 nu         1 QNH      -0.952200
     20 C17         17.9420   -14.9510    13.8490 ca         1 QNH       0.276900
     21 N3          18.2510   -13.7200    13.4830 nb         1 QNH      -0.597000
     22 N2          17.6700   -11.0880    12.2120 n3         1 QNH      -0.736600
     23 F2          15.4010   -12.7260    13.0120 f          1 QNH      -0.117333
     24 F1          15.0920   -10.6180    13.2830 f          1 QNH      -0.117333
     25 F           14.1400   -11.6450    11.6430 f          1 QNH      -0.117333
     26 C           18.6370    -9.0660    11.0820 c3         1 QNH      -0.128100
     27 C4          20.0540   -11.6560    12.5030 ca         1 QNH      -0.108300
     28 C5          21.1590   -12.5080    12.2590 ca         1 QNH      -0.059000
     29 C6          22.3970   -12.2990    12.8130 ca         1 QNH      -0.135000
     30 N1          23.5720   -10.6820    14.3450 na         1 QNH      -0.062400
     31 N           23.2560    -9.5690    15.0090 nd         1 QNH      -0.520100
     32 H1          17.1740    -9.1330    12.6410 h1         1 QNH       0.065700
     33 H2          19.4110    -8.5850    13.6300 hc         1 QNH       0.066700
     34 H3          18.5240    -9.8560    14.4490 hc         1 QNH       0.066700
     35 H4          21.5060    -8.4660    15.1890 h4         1 QNH       0.047800
     36 H5          18.9100   -11.9790    10.7440 h1         1 QNH       0.030700
     37 H8          18.2420   -14.1300    10.1700 ha         1 QNH       0.113000
     38 H9          17.6800   -16.4450    10.8310 ha         1 QNH       0.115000
     39 H10         15.8730   -19.4780    15.0460 h1         1 QNH       0.055950
     40 H11         17.4630   -19.6980    14.2700 h1         1 QNH       0.055950
     41 H12         19.1520   -17.7410    15.3510 h1         1 QNH       0.055950
     42 H13         18.1700   -16.8280    16.5280 h1         1 QNH       0.055950
     43 H14         19.2600   -20.1260    15.9440 h1         1 QNH       0.033200
     44 H15         19.0140   -19.5490    17.5920 h1         1 QNH       0.033200
     45 H16         17.2920   -21.6220    16.1550 hc         1 QNH       0.036200
     46 H17         18.5250   -21.9510    17.3440 hc         1 QNH       0.036200
     47 H18         16.2790   -22.0280    18.4010 hc         1 QNH       0.035033
     48 H19         17.1940   -20.6820    19.0750 hc         1 QNH       0.035033
     49 H20         15.9400   -20.3810    17.8770 hc         1 QNH       0.035033
     50 H22         16.1980   -17.0090    15.0130 h1         1 QNH       0.068700
     51 H23         17.1320   -17.9100    12.6400 hn         1 QNH       0.479000
     52 H24         17.8660   -15.1240    14.9180 h4         1 QNH       0.023100
     53 H26         18.8630    -8.0110    11.2420 hc         1 QNH       0.040700
     54 H27         19.5560    -9.5580    10.7620 hc         1 QNH       0.040700
     55 H28         17.9250    -9.1210    10.2570 hc         1 QNH       0.040700
     56 H29         21.0210   -13.3630    11.6070 ha         1 QNH       0.113000
     57 H30         23.2270   -12.9630    12.6090 ha         1 QNH       0.120000
     58 H31         24.5100   -11.0450    14.3980 hn         1 QNH       0.374000
     59 C11         16.4560   -11.2720    11.4530 c3         1 QNH       0.120800
     60 C21         18.4880   -19.9210    16.7060 c3         1 QNH       0.166800
     61 H6          16.5420   -12.0960    10.7400 h1         1 QNH       0.066200
     62 H7          16.2040   -10.3890    10.8570 h1         1 QNH       0.066200
@<TRIPOS>BOND
     1     1     2 1   
     2     1    22 1   
     3     1    26 1   
     4     1    32 1   
     5     2     3 1   
     6     2    33 1   
     7     2    34 1   
     8     3     5 ar  
     9     3    27 ar  
    10     4     5 ar  
    11     4    29 ar  
    12     4    30 1   
    13     5     6 1   
    14     6    31 2   
    15     6    35 1   
    16     7     9 1   
    17     7    22 1   
    18     7    27 1   
    19     7    36 1   
    20     8    23 1   
    21     8    24 1   
    22     8    25 1   
    23     8    59 1   
    24     9    10 ar  
    25     9    21 ar  
    26    10    11 ar  
    27    10    37 1   
    28    11    12 ar  
    29    11    38 1   
    30    12    19 1   
    31    12    20 ar  
    32    13    17 1   
    33    13    18 1   
    34    13    39 1   
    35    13    40 1   
    36    14    17 1   
    37    14    18 1   
    38    14    41 1   
    39    14    42 1   
    40    15    16 1   
    41    15    45 1   
    42    15    46 1   
    43    15    60 1   
    44    16    47 1   
    45    16    48 1   
    46    16    49 1   
    47    17    60 1   
    48    18    19 1   
    49    18    50 1   
    50    19    51 1   
    51    20    21 ar  
    52    20    52 1   
    53    22    59 1   
    54    26    53 1   
    55    26    54 1   
    56    26    55 1   
    57    27    28 ar  
    58    28    29 ar  
    59    28    56 1   
    60    29    57 1   
    61    30    31 1   
    62    30    58 1   
    63    43    60 1   
    64    44    60 1   
    65    59    61 1   
    66    59    62 1   
@<TRIPOS>SUBSTRUCTURE
     1 QNH         1 TEMP              0 ****  ****    0 ROOT
