@<TRIPOS>MOLECULE
QNH
   62    66     1     0     0
SMALL
No Charge or Current Charge


@<TRIPOS>ATOM
      1 C1          18.0160    -9.5590    12.3900 c6         1 QNH       0.202500
      2 C2          19.1290    -9.3350    13.4380 c6         1 QNH      -0.028100
      3 C3          20.2770   -10.3240    13.2850 ca         1 QNH       0.023700
      4 C7          22.5990   -10.8990    13.6280 ca         1 QNH      -0.034200
      5 C8          21.5610   -10.0380    13.7740 ca         1 QNH      -0.230900
      6 C9          22.0980    -8.8970    14.4750 cc         1 QNH       0.353800
      7 C10         18.6950   -11.9520    12.0690 c6         1 QNH       0.224500
      8 C12         15.0220   -10.4990    12.0720 c3         1 QNH       0.294000
      9 C13         18.3540   -13.4340    12.4000 ca         1 QNH       0.281300
     10 C14         18.1720   -14.3720    11.3600 ca         1 QNH      -0.118000
     11 C15         17.8630   -15.7100    11.6710 ca         1 QNH      -0.162000
     12 C16         17.7430   -16.0810    13.0200 ca         1 QNH       0.278000
     13 C19         17.1550   -19.5910    14.7830 cy         1 QNH       0.135800
     14 C20         18.5750   -18.2590    15.5440 cy         1 QNH       0.135800
     15 C22         17.5110   -21.6350    17.2430 c3         1 QNH      -0.071400
     16 C23         16.4640   -21.1750    18.2800 c3         1 QNH      -0.083100
     17 N5          17.8120   -19.4120    16.1160 nq         1 QNH      -0.706600
     18 C18         17.2910   -18.0280    14.6630 cy         1 QNH       0.187500
     19 N4          17.4350   -17.4200    13.3320 nu         1 QNH      -0.952200
     20 C17         17.9420   -15.0710    14.0030 ca         1 QNH       0.276900
     21 N3          18.2410   -13.7790    13.7110 nb         1 QNH      -0.597000
     22 N2          17.5820   -10.9890    12.4110 n3         1 QNH      -0.736600
     23 F2          14.9140   -10.3800    13.4160 f          1 QNH      -0.117333
     24 F1          15.0080    -9.2560    11.5370 f          1 QNH      -0.117333
     25 F           13.9190   -11.1430    11.6280 f          1 QNH      -0.117333
     26 C           18.4450    -9.0540    10.9800 c3         1 QNH      -0.128100
     27 C4          20.0810   -11.5690    12.6370 ca         1 QNH      -0.108300
     28 C5          21.1820   -12.4580    12.4770 ca         1 QNH      -0.059000
     29 C6          22.4590   -12.1270    12.9780 ca         1 QNH      -0.135000
     30 N1          23.7020   -10.3100    14.2080 na         1 QNH      -0.062400
     31 N           23.4050    -9.0490    14.7470 nd         1 QNH      -0.520100
     32 H1          17.1800    -8.9170    12.7040 h1         1 QNH       0.065700
     33 H2          19.4970    -8.3030    13.3740 hc         1 QNH       0.066700
     34 H3          18.7010    -9.4460    14.4430 hc         1 QNH       0.066700
     35 H4          21.6250    -7.9790    14.8000 h4         1 QNH       0.047800
     36 H5          18.8260   -11.9110    10.9780 h1         1 QNH       0.030700
     37 H8          18.2680   -14.0630    10.3220 ha         1 QNH       0.113000
     38 H9          17.7210   -16.4390    10.8780 ha         1 QNH       0.115000
     39 H10         16.1240   -19.9630    14.8000 h1         1 QNH       0.055950
     40 H11         17.7470   -20.1460    14.0440 h1         1 QNH       0.055950
     41 H12         19.4650   -18.5310    14.9630 h1         1 QNH       0.055950
     42 H13         18.8090   -17.4430    16.2380 h1         1 QNH       0.055950
     43 H14         19.2370   -20.9530    16.1180 h1         1 QNH       0.033200
     44 H15         19.0140   -20.1310    17.6760 h1         1 QNH       0.033200
     45 H16         16.9970   -22.0480    16.3660 hc         1 QNH       0.036200
     46 H17         18.0960   -22.4550    17.6770 hc         1 QNH       0.036200
     47 H18         15.8330   -22.0180    18.5850 hc         1 QNH       0.035033
     48 H19         16.9550   -20.7720    19.1730 hc         1 QNH       0.035033
     49 H20         15.8130   -20.3970    17.8610 hc         1 QNH       0.035033
     50 H22         16.4970   -17.4980    15.2040 h1         1 QNH       0.068700
     51 H23         17.3110   -18.0330    12.5220 hn         1 QNH       0.479000
     52 H24         17.8590   -15.3060    15.0640 h4         1 QNH       0.023100
     53 H26         18.7140    -7.9920    11.0140 hc         1 QNH       0.040700
     54 H27         19.3150    -9.5980    10.5940 hc         1 QNH       0.040700
     55 H28         17.6350    -9.1560    10.2500 hc         1 QNH       0.040700
     56 H29         21.0490   -13.4060    11.9610 ha         1 QNH       0.113000
     57 H30         23.3020   -12.8050    12.8600 ha         1 QNH       0.120000
     58 H31         24.6390   -10.7080    14.2610 hn         1 QNH       0.374000
     59 C11         16.3080   -11.2840    11.6660 c3         1 QNH       0.120800
     60 C21         18.4870   -20.5230    16.7960 c3         1 QNH       0.166800
     61 H6          16.0600   -12.3480    11.7830 h1         1 QNH       0.066200
     62 H7          16.4640   -11.1330    10.5890 h1         1 QNH       0.066200
@<TRIPOS>BOND
     1     1     2 1   
     2     1    22 1   
     3     1    26 1   
     4     1    32 1   
     5     2     3 1   
     6     2    33 1   
     7     2    34 1   
     8     3     5 ar  
     9     3    27 ar  
    10     4     5 ar  
    11     4    29 ar  
    12     4    30 1   
    13     5     6 1   
    14     6    31 2   
    15     6    35 1   
    16     7     9 1   
    17     7    22 1   
    18     7    27 1   
    19     7    36 1   
    20     8    23 1   
    21     8    24 1   
    22     8    25 1   
    23     8    59 1   
    24     9    10 ar  
    25     9    21 ar  
    26    10    11 ar  
    27    10    37 1   
    28    11    12 ar  
    29    11    38 1   
    30    12    19 1   
    31    12    20 ar  
    32    13    17 1   
    33    13    18 1   
    34    13    39 1   
    35    13    40 1   
    36    14    17 1   
    37    14    18 1   
    38    14    41 1   
    39    14    42 1   
    40    15    16 1   
    41    15    45 1   
    42    15    46 1   
    43    15    60 1   
    44    16    47 1   
    45    16    48 1   
    46    16    49 1   
    47    17    60 1   
    48    18    19 1   
    49    18    50 1   
    50    19    51 1   
    51    20    21 ar  
    52    20    52 1   
    53    22    59 1   
    54    26    53 1   
    55    26    54 1   
    56    26    55 1   
    57    27    28 ar  
    58    28    29 ar  
    59    28    56 1   
    60    29    57 1   
    61    30    31 1   
    62    30    58 1   
    63    43    60 1   
    64    44    60 1   
    65    59    61 1   
    66    59    62 1   
@<TRIPOS>SUBSTRUCTURE
     1 QNH         1 TEMP              0 ****  ****    0 ROOT
