@<TRIPOS>MOLECULE
QNI
   40    43     1     0     0
SMALL
No Charge or Current Charge


@<TRIPOS>ATOM
      1 C12          3.7950    -1.8400    -0.8670 cc         1 QNI       0.397700
      2 N3           2.5610    -1.6080    -0.3860 nd         1 QNI      -0.559100
      3 N4           4.4990    -0.6490    -1.0020 na         1 QNI      -0.413300
      4 C13          3.6990     0.3740    -0.6020 ca         1 QNI       0.121500
      5 N5           3.9030     1.7010    -0.5600 nb         1 QNI      -0.225000
      6 C            2.8590     2.4340    -0.1140 ca         1 QNI       0.185900
      7 C11          2.5170    -0.2130    -0.2200 ca         1 QNI      -0.091600
      8 C1           1.4670     0.6270     0.2450 ca         1 QNI       0.461900
      9 N            1.6540     1.9670     0.2870 nb         1 QNI      -0.314000
     10 N1           0.2010     0.1440     0.6640 nh         1 QNI      -0.753300
     11 C10         -1.0120     1.0170     0.6230 c6         1 QNI       0.220800
     12 C5          -2.3210     0.1990     0.3630 c6         1 QNI      -0.062000
     13 C4          -2.4170    -0.9310     1.4470 c6         1 QNI      -0.070400
     14 C3          -1.1320    -1.7950     1.5100 c6         1 QNI      -0.098400
     15 C2           0.1260    -0.9180     1.7050 c6         1 QNI       0.210800
     16 C9          -2.3100    -0.3740    -1.0970 c6         1 QNI      -0.105900
     17 C8          -3.6630    -1.0160    -1.4970 c6         1 QNI       0.148800
     18 N2          -4.7770    -0.0510    -1.3380 n7         1 QNI      -0.843400
     19 C7          -4.8780     0.4820     0.0420 c6         1 QNI       0.148800
     20 C6          -3.5510     1.1580     0.4760 c6         1 QNI      -0.105900
     21 H12          4.2180    -2.8050    -1.1260 h5         1 QNI       0.066800
     22 H4           5.4470    -0.5660    -1.3450 hn         1 QNI       0.369000
     23 H            3.0020     3.5130    -0.0740 h5         1 QNI       0.045100
     24 H101        -1.1070     1.5630     1.5750 h1         1 QNI       0.066700
     25 H102        -0.9150     1.7760    -0.1690 h1         1 QNI       0.066700
     26 H21C         1.0140    -1.5660     1.6880 h1         1 QNI       0.071200
     27 H22C         0.0910    -0.4570     2.7050 h1         1 QNI       0.071200
     28 H41C        -2.5800    -0.4760     2.4340 hc         1 QNI       0.043200
     29 H42C        -3.2820    -1.5830     1.2740 hc         1 QNI       0.043200
     30 H91C        -2.0860     0.4350    -1.8060 hc         1 QNI       0.048200
     31 H92C        -1.5050    -1.1070    -1.2300 hc         1 QNI       0.048200
     32 H61C        -3.6510     1.5300     1.5050 hc         1 QNI       0.048200
     33 H62C        -3.3870     2.0460    -0.1500 hc         1 QNI       0.048200
     34 H31C        -1.2090    -2.5120     2.3370 hc         1 QNI       0.052200
     35 H32C        -1.0270    -2.3940     0.5970 hc         1 QNI       0.052200
     36 H81C        -3.6130    -1.3480    -2.5460 h1         1 QNI       0.051200
     37 H82C        -3.8530    -1.9100    -0.8840 h1         1 QNI       0.051200
     38 H2          -4.6050     0.7390    -1.9710 hn         1 QNI       0.401000
     39 H71C        -5.6950     1.2170     0.0930 h1         1 QNI       0.051200
     40 H72C        -5.1310    -0.3320     0.7380 h1         1 QNI       0.051200
@<TRIPOS>BOND
     1     1     2 2   
     2     1     3 1   
     3     1    21 1   
     4     2     7 1   
     5     3     4 1   
     6     3    22 1   
     7     4     5 ar  
     8     4     7 ar  
     9     5     6 ar  
    10     6     9 ar  
    11     6    23 1   
    12     7     8 ar  
    13     8     9 ar  
    14     8    10 1   
    15    10    11 1   
    16    10    15 1   
    17    11    12 1   
    18    11    24 1   
    19    11    25 1   
    20    12    13 1   
    21    12    16 1   
    22    12    20 1   
    23    13    14 1   
    24    13    28 1   
    25    13    29 1   
    26    14    15 1   
    27    14    34 1   
    28    14    35 1   
    29    15    26 1   
    30    15    27 1   
    31    16    17 1   
    32    16    30 1   
    33    16    31 1   
    34    17    18 1   
    35    17    36 1   
    36    17    37 1   
    37    18    19 1   
    38    18    38 1   
    39    19    20 1   
    40    19    39 1   
    41    19    40 1   
    42    20    32 1   
    43    20    33 1   
@<TRIPOS>SUBSTRUCTURE
     1 QNI         1 TEMP              0 ****  ****    0 ROOT
