@<TRIPOS>MOLECULE
QNI
   40    43     1     0     0
SMALL
bcc


@<TRIPOS>ATOM
      1 C12          3.9630    -1.7670     0.0290 cc         1 QNI       0.397700
      2 N3           2.8020    -1.5590     0.5760 nd         1 QNI      -0.559100
      3 N4           4.3350    -0.7710    -0.8170 na         1 QNI      -0.363000
      4 C13          3.3350     0.1490    -0.8140 ca         1 QNI       0.449800
      5 N5           3.2810     1.2890    -1.5020 nb         1 QNI      -0.751000
      6 C            2.1590     1.9400    -1.2560 ca         1 QNI       0.711900
      7 C11          2.3770    -0.3550     0.0640 ca         1 QNI      -0.222200
      8 C1           1.2140     0.4420     0.2410 ca         1 QNI       0.790200
      9 N            1.1640     1.5900    -0.4540 nb         1 QNI      -0.840000
     10 N1           0.1850     0.1490     1.0510 nh         1 QNI      -0.753300
     11 C10         -1.0160     0.9640     1.1090 c6         1 QNI       0.220800
     12 C5          -2.2260     0.2430     0.5020 c6         1 QNI      -0.062000
     13 C4          -2.3860    -1.1040     1.2280 c6         1 QNI      -0.070400
     14 C3          -1.0960    -1.9160     1.2700 c6         1 QNI      -0.098400
     15 C2           0.0590    -1.0840     1.8090 c6         1 QNI       0.210800
     16 C9          -2.0370     0.0610    -1.0110 c6         1 QNI      -0.105900
     17 C8          -3.3120    -0.4250    -1.7000 c6         1 QNI       0.148800
     18 N2          -4.4820     0.3990    -1.4360 n7         1 QNI      -0.788200
     19 C7          -4.6930     0.5920    -0.0100 c6         1 QNI       0.148800
     20 C6          -3.4640     1.1210     0.7260 c6         1 QNI      -0.105900
     21 H12          4.5920    -2.6260     0.2050 h5         1 QNI       0.066800
     22 H4           5.1920    -0.7250    -1.3470 hn         1 QNI       0.318700
     23 H            2.0300     2.8850    -1.7750 h5         1 QNI       0.045100
     24 H101        -1.2200     1.1810     2.1640 h1         1 QNI       0.066700
     25 H102        -0.8400     1.9110     0.6050 h1         1 QNI       0.066700
     26 H21C         0.9880    -1.6430     1.7870 h1         1 QNI       0.071200
     27 H22C        -0.1380    -0.8150     2.8530 h1         1 QNI       0.071200
     28 H41C        -2.7050    -0.9020     2.2570 hc         1 QNI       0.043200
     29 H42C        -3.1820    -1.7030     0.7800 hc         1 QNI       0.043200
     30 H91C        -1.7450     1.0220    -1.4500 hc         1 QNI       0.048200
     31 H92C        -1.2220    -0.6340    -1.2300 hc         1 QNI       0.048200
     32 H61C        -3.6770     1.2020     1.7970 hc         1 QNI       0.048200
     33 H62C        -3.2520     2.1370     0.3710 hc         1 QNI       0.048200
     34 H31C        -1.2280    -2.7920     1.9090 hc         1 QNI       0.052200
     35 H32C        -0.8390    -2.2920     0.2760 hc         1 QNI       0.052200
     36 H81C        -3.1530    -0.4640    -2.7800 h1         1 QNI       0.051200
     37 H82C        -3.5380    -1.4500    -1.3900 h1         1 QNI       0.051200
     38 H2          -4.3400     1.3060    -1.8650 hn         1 QNI       0.345800
     39 H71C        -5.5310     1.2780     0.1290 h1         1 QNI       0.051200
     40 H72C        -5.0050    -0.3640     0.4250 h1         1 QNI       0.051200
@<TRIPOS>BOND
     1     1     2 2   
     2     1     3 1   
     3     1    21 1   
     4     2     7 1   
     5     3     4 1   
     6     3    22 1   
     7     4     5 ar  
     8     4     7 ar  
     9     5     6 ar  
    10     6     9 ar  
    11     6    23 1   
    12     7     8 ar  
    13     8     9 ar  
    14     8    10 1   
    15    10    11 1   
    16    10    15 1   
    17    11    12 1   
    18    11    24 1   
    19    11    25 1   
    20    12    13 1   
    21    12    16 1   
    22    12    20 1   
    23    13    14 1   
    24    13    28 1   
    25    13    29 1   
    26    14    15 1   
    27    14    34 1   
    28    14    35 1   
    29    15    26 1   
    30    15    27 1   
    31    16    17 1   
    32    16    30 1   
    33    16    31 1   
    34    17    18 1   
    35    17    36 1   
    36    17    37 1   
    37    18    19 1   
    38    18    38 1   
    39    19    20 1   
    40    19    39 1   
    41    19    40 1   
    42    20    32 1   
    43    20    33 1   
@<TRIPOS>SUBSTRUCTURE
     1 QNI         1 TEMP              0 ****  ****    0 ROOT
