@<TRIPOS>MOLECULE
QNJ
   76    79     1     0     0
SMALL
bcc


@<TRIPOS>ATOM
      1 C1         204.3780   175.6890   246.4420 c6         1 QNJ      -0.069400
      2 C2         205.0140   175.1550   245.1640 c6         1 QNJ      -0.071400
      3 C3         206.5250   175.1710   245.2960 c6         1 QNJ       0.148100
      4 C4         206.9440   174.3360   246.4970 c6         1 QNJ      -0.105400
      5 C5         206.2970   174.7710   247.8150 c6         1 QNJ      -0.048700
      6 C6         206.9040   176.0380   248.4070 c6         1 QNJ      -0.071400
      7 C7         206.5190   176.1510   249.8840 c6         1 QNJ      -0.073400
      8 C8         205.1240   175.5700   250.1820 c6         1 QNJ      -0.042700
      9 C9         204.2180   175.7170   248.9470 c6         1 QNJ      -0.046700
     10 C10        204.7550   174.9110   247.7170 c6         1 QNJ      -0.031000
     11 C11        202.7420   175.4340   249.2520 c6         1 QNJ      -0.070400
     12 C12        202.2100   176.1470   250.4950 c6         1 QNJ      -0.062400
     13 C13        203.0690   175.8370   251.7220 c5         1 QNJ      -0.037000
     14 C14        204.4990   176.2800   251.3730 c5         1 QNJ      -0.064700
     15 C15        205.2380   176.2450   252.7050 c5         1 QNJ      -0.071400
     16 C16        204.1670   176.6800   253.7250 c5         1 QNJ      -0.077400
     17 C17        202.8070   176.7070   252.9760 c5         1 QNJ      -0.052700
     18 C18        203.0050   174.3500   252.0850 c3         1 QNJ      -0.078100
     19 C19        204.1510   173.5040   247.6540 c3         1 QNJ      -0.084100
     20 C20        201.6260   176.3480   253.8880 c3         1 QNJ      -0.047700
     21 C21        200.2940   176.2990   253.1420 c3         1 QNJ      -0.086100
     22 C22        201.5350   177.3330   255.0640 c3         1 QNJ      -0.076400
     23 C23        200.6440   176.8630   256.2100 c3         1 QNJ      -0.074400
     24 C24        200.5690   177.8760   257.3460 c3         1 QNJ      -0.072400
     25 C25        199.8390   177.3840   258.5990 c3         1 QNJ      -0.059700
     26 C26        199.9030   178.4410   259.6970 c3         1 QNJ      -0.087100
     27 C27        198.3890   177.0060   258.3120 c3         1 QNJ      -0.087100
     28 O1         207.0860   174.6790   244.0920 oh         1 QNJ      -0.599800
     29 H1         204.6750   176.7360   246.5590 hc         1 QNJ       0.040200
     30 H2         203.2900   175.6980   246.3340 hc         1 QNJ       0.040200
     31 H3         204.7020   175.7710   244.3150 hc         1 QNJ       0.052200
     32 H4         204.6730   174.1360   244.9550 hc         1 QNJ       0.052200
     33 H5         206.8420   176.2140   245.4540 h1         1 QNJ       0.028700
     34 H6         206.6930   173.2910   246.2870 hc         1 QNJ       0.043200
     35 H7         208.0340   174.3690   246.6150 hc         1 QNJ       0.043200
     36 H8         206.5070   173.9680   248.5330 hc         1 QNJ       0.048700
     37 H9         207.9920   176.0270   248.3000 hc         1 QNJ       0.039200
     38 H10        206.5580   176.9220   247.8620 hc         1 QNJ       0.039200
     39 H11        207.2620   175.6360   250.4990 hc         1 QNJ       0.037700
     40 H12        206.5510   177.2010   250.1900 hc         1 QNJ       0.037700
     41 H13        205.2350   174.5050   250.4220 hc         1 QNJ       0.050700
     42 H14        204.2740   176.7820   248.6790 hc         1 QNJ       0.042700
     43 H15        202.1330   175.7210   248.3890 hc         1 QNJ       0.039700
     44 H16        202.5800   174.3630   249.3810 hc         1 QNJ       0.039700
     45 H17        202.2120   177.2320   250.3350 hc         1 QNJ       0.039700
     46 H18        201.1670   175.8610   250.6420 hc         1 QNJ       0.039700
     47 H19        204.4160   177.3400   251.0830 hc         1 QNJ       0.042700
     48 H20        205.6030   175.2360   252.9190 hc         1 QNJ       0.040700
     49 H21        206.1100   176.9010   252.7150 hc         1 QNJ       0.040700
     50 H22        204.1240   175.9870   254.5710 hc         1 QNJ       0.040200
     51 H23        204.3980   177.6590   254.1480 hc         1 QNJ       0.040200
     52 H24        202.6360   177.7310   252.6130 hc         1 QNJ       0.043700
     53 H25        203.5860   174.1180   252.9790 hc         1 QNJ       0.032367
     54 H26        201.9780   174.0350   252.2790 hc         1 QNJ       0.032367
     55 H27        203.3880   173.7100   251.2910 hc         1 QNJ       0.032367
     56 H28        204.2520   172.9770   248.6060 hc         1 QNJ       0.033367
     57 H29        203.0910   173.5240   247.3980 hc         1 QNJ       0.033367
     58 H30        204.6430   172.8890   246.8980 hc         1 QNJ       0.033367
     59 H31        201.8210   175.3530   254.3110 hc         1 QNJ       0.045700
     60 H32        199.4540   176.1890   253.8300 hc         1 QNJ       0.032367
     61 H33        200.1320   177.2180   252.5730 hc         1 QNJ       0.032367
     62 H34        200.2380   175.4640   252.4450 hc         1 QNJ       0.032367
     63 H35        202.5320   177.5200   255.4720 hc         1 QNJ       0.038200
     64 H36        201.1780   178.3010   254.6900 hc         1 QNJ       0.038200
     65 H37        199.6370   176.6490   255.8440 hc         1 QNJ       0.037700
     66 H38        201.0340   175.9140   256.5960 hc         1 QNJ       0.037700
     67 H39        201.5870   178.1650   257.6300 hc         1 QNJ       0.036700
     68 H40        200.0830   178.7930   256.9890 hc         1 QNJ       0.036700
     69 H41        200.3600   176.4870   258.9570 hc         1 QNJ       0.043700
     70 H42        199.4170   178.0970   260.6120 hc         1 QNJ       0.031533
     71 H43        200.9330   178.6990   259.9470 hc         1 QNJ       0.031533
     72 H44        199.3990   179.3580   259.3810 hc         1 QNJ       0.031533
     73 H45        197.8790   176.6830   259.2210 hc         1 QNJ       0.031533
     74 H46        197.8370   177.8610   257.9110 hc         1 QNJ       0.031533
     75 H47        198.3080   176.1930   257.5900 hc         1 QNJ       0.031533
     76 H48        208.0430   174.6860   244.1850 ho         1 QNJ       0.400000
@<TRIPOS>BOND
     1     1     2 1   
     2     1    10 1   
     3     1    29 1   
     4     1    30 1   
     5     2     3 1   
     6     2    31 1   
     7     2    32 1   
     8     3     4 1   
     9     3    28 1   
    10     3    33 1   
    11     4     5 1   
    12     4    34 1   
    13     4    35 1   
    14     5     6 1   
    15     5    10 1   
    16     5    36 1   
    17     6     7 1   
    18     6    37 1   
    19     6    38 1   
    20     7     8 1   
    21     7    39 1   
    22     7    40 1   
    23     8     9 1   
    24     8    14 1   
    25     8    41 1   
    26     9    10 1   
    27     9    11 1   
    28     9    42 1   
    29    10    19 1   
    30    11    12 1   
    31    11    43 1   
    32    11    44 1   
    33    12    13 1   
    34    12    45 1   
    35    12    46 1   
    36    13    14 1   
    37    13    17 1   
    38    13    18 1   
    39    14    15 1   
    40    14    47 1   
    41    15    16 1   
    42    15    48 1   
    43    15    49 1   
    44    16    17 1   
    45    16    50 1   
    46    16    51 1   
    47    17    20 1   
    48    17    52 1   
    49    18    53 1   
    50    18    54 1   
    51    18    55 1   
    52    19    56 1   
    53    19    57 1   
    54    19    58 1   
    55    20    21 1   
    56    20    22 1   
    57    20    59 1   
    58    21    60 1   
    59    21    61 1   
    60    21    62 1   
    61    22    23 1   
    62    22    63 1   
    63    22    64 1   
    64    23    24 1   
    65    23    65 1   
    66    23    66 1   
    67    24    25 1   
    68    24    67 1   
    69    24    68 1   
    70    25    26 1   
    71    25    27 1   
    72    25    69 1   
    73    26    70 1   
    74    26    71 1   
    75    26    72 1   
    76    27    73 1   
    77    27    74 1   
    78    27    75 1   
    79    28    76 1   
@<TRIPOS>SUBSTRUCTURE
     1 QNJ         1 TEMP              0 ****  ****    0 ROOT
