@<TRIPOS>MOLECULE
QNJ
   76    79     1     0     0
SMALL
No Charge or Current Charge


@<TRIPOS>ATOM
      1 C1         204.3070   175.6770   246.3700 c6         1 QNJ      -0.069400
      2 C2         205.0020   175.2800   245.0460 c6         1 QNJ      -0.071400
      3 C3         206.5320   175.4500   245.1660 c6         1 QNJ       0.171300
      4 C4         207.0730   174.5680   246.3140 c6         1 QNJ      -0.105400
      5 C5         206.3920   174.8690   247.6870 c6         1 QNJ      -0.048700
      6 C6         206.9310   176.1580   248.3460 c6         1 QNJ      -0.071400
      7 C7         206.5140   176.2180   249.8420 c6         1 QNJ      -0.073400
      8 C8         205.1530   175.5030   250.1550 c6         1 QNJ      -0.042700
      9 C9         204.1990   175.5860   248.9200 c6         1 QNJ      -0.046700
     10 C10        204.8080   174.8720   247.6240 c6         1 QNJ      -0.031000
     11 C11        202.7310   175.1430   249.2580 c6         1 QNJ      -0.070400
     12 C12        202.1620   175.8180   250.5370 c6         1 QNJ      -0.062400
     13 C13        203.0810   175.5860   251.7830 c5         1 QNJ      -0.037000
     14 C14        204.4880   176.1500   251.4080 c5         1 QNJ      -0.064700
     15 C15        205.2630   176.0520   252.7430 c5         1 QNJ      -0.071400
     16 C16        204.1890   176.4590   253.7990 c5         1 QNJ      -0.077400
     17 C17        202.8110   176.5240   253.0310 c5         1 QNJ      -0.052700
     18 C18        203.0550   174.0650   252.1630 c3         1 QNJ      -0.078100
     19 C19        204.3460   173.3760   247.5060 c3         1 QNJ      -0.084100
     20 C20        201.5730   176.2470   253.9650 c3         1 QNJ      -0.047700
     21 C21        200.2240   176.1670   253.2040 c3         1 QNJ      -0.086100
     22 C22        201.4990   177.2880   255.1300 c3         1 QNJ      -0.076400
     23 C23        200.4850   176.9690   256.2590 c3         1 QNJ      -0.074400
     24 C24        200.6010   177.9400   257.4600 c3         1 QNJ      -0.072400
     25 C25        199.6800   177.6030   258.6650 c3         1 QNJ      -0.059700
     26 C26        199.9950   178.5170   259.8710 c3         1 QNJ      -0.087100
     27 C27        198.1740   177.6640   258.3120 c3         1 QNJ      -0.087100
     28 O1         207.1610   175.0860   243.9340 oh         1 QNJ      -0.662000
     29 H1         204.4720   176.7530   246.5200 hc         1 QNJ       0.040200
     30 H2         203.2210   175.5590   246.2560 hc         1 QNJ       0.040200
     31 H3         204.6240   175.9130   244.2320 hc         1 QNJ       0.052200
     32 H4         204.7510   174.2460   244.7750 hc         1 QNJ       0.052200
     33 H5         206.7520   176.5030   245.3960 h1         1 QNJ       0.028700
     34 H6         206.9310   173.5100   246.0570 hc         1 QNJ       0.043200
     35 H7         208.1590   174.7020   246.4050 hc         1 QNJ       0.043200
     36 H8         206.7040   174.0460   248.3480 hc         1 QNJ       0.048700
     37 H9         208.0270   176.2050   248.2760 hc         1 QNJ       0.039200
     38 H10        206.5510   177.0420   247.8150 hc         1 QNJ       0.039200
     39 H11        207.3000   175.7610   250.4580 hc         1 QNJ       0.037700
     40 H12        206.4790   177.2740   250.1420 hc         1 QNJ       0.037700
     41 H13        205.3550   174.4440   250.3680 hc         1 QNJ       0.050700
     42 H14        204.1250   176.6620   248.7050 hc         1 QNJ       0.042700
     43 H15        202.0720   175.3780   248.4120 hc         1 QNJ       0.039700
     44 H16        202.6680   174.0570   249.3920 hc         1 QNJ       0.039700
     45 H17        202.0420   176.8940   250.3520 hc         1 QNJ       0.039700
     46 H18        201.1560   175.4220   250.7060 hc         1 QNJ       0.039700
     47 H19        204.3920   177.2100   251.1360 hc         1 QNJ       0.042700
     48 H20        205.6390   175.0380   252.9230 hc         1 QNJ       0.040700
     49 H21        206.1320   176.7200   252.7660 hc         1 QNJ       0.040700
     50 H22        204.1670   175.7290   254.6170 hc         1 QNJ       0.040200
     51 H23        204.4320   177.4260   254.2520 hc         1 QNJ       0.040200
     52 H24        202.6630   177.5500   252.6700 hc         1 QNJ       0.043700
     53 H25        203.5820   173.8560   253.1000 hc         1 QNJ       0.032367
     54 H26        202.0270   173.7100   252.2980 hc         1 QNJ       0.032367
     55 H27        203.5150   173.4340   251.3970 hc         1 QNJ       0.032367
     56 H28        204.5550   172.8200   248.4280 hc         1 QNJ       0.033367
     57 H29        203.2720   173.2930   247.3010 hc         1 QNJ       0.033367
     58 H30        204.8510   172.8440   246.6930 hc         1 QNJ       0.033367
     59 H31        201.7230   175.2670   254.4340 hc         1 QNJ       0.045700
     60 H32        199.3680   176.1200   253.8830 hc         1 QNJ       0.032367
     61 H33        200.0900   177.0340   252.5460 hc         1 QNJ       0.032367
     62 H34        200.1720   175.2520   252.6060 hc         1 QNJ       0.032367
     63 H35        202.4840   177.3730   255.6020 hc         1 QNJ       0.038200
     64 H36        201.2730   178.2770   254.7120 hc         1 QNJ       0.038200
     65 H37        199.4660   177.0220   255.8640 hc         1 QNJ       0.037700
     66 H38        200.6470   175.9420   256.6100 hc         1 QNJ       0.037700
     67 H39        201.6420   177.9370   257.8070 hc         1 QNJ       0.036700
     68 H40        200.3900   178.9610   257.1170 hc         1 QNJ       0.036700
     69 H41        199.9020   176.5740   258.9750 hc         1 QNJ       0.043700
     70 H42        199.3830   178.2400   260.7380 hc         1 QNJ       0.031533
     71 H43        201.0490   178.4280   260.1610 hc         1 QNJ       0.031533
     72 H44        199.7920   179.5670   259.6290 hc         1 QNJ       0.031533
     73 H45        197.5610   177.4710   259.2000 hc         1 QNJ       0.031533
     74 H46        197.9040   178.6520   257.9190 hc         1 QNJ       0.031533
     75 H47        197.9100   176.9090   257.5620 hc         1 QNJ       0.031533
     76 H48        208.1240   175.2310   244.0590 ho         1 QNJ       0.439000
@<TRIPOS>BOND
     1     1     2 1   
     2     1    10 1   
     3     1    29 1   
     4     1    30 1   
     5     2     3 1   
     6     2    31 1   
     7     2    32 1   
     8     3     4 1   
     9     3    28 1   
    10     3    33 1   
    11     4     5 1   
    12     4    34 1   
    13     4    35 1   
    14     5     6 1   
    15     5    10 1   
    16     5    36 1   
    17     6     7 1   
    18     6    37 1   
    19     6    38 1   
    20     7     8 1   
    21     7    39 1   
    22     7    40 1   
    23     8     9 1   
    24     8    14 1   
    25     8    41 1   
    26     9    10 1   
    27     9    11 1   
    28     9    42 1   
    29    10    19 1   
    30    11    12 1   
    31    11    43 1   
    32    11    44 1   
    33    12    13 1   
    34    12    45 1   
    35    12    46 1   
    36    13    14 1   
    37    13    17 1   
    38    13    18 1   
    39    14    15 1   
    40    14    47 1   
    41    15    16 1   
    42    15    48 1   
    43    15    49 1   
    44    16    17 1   
    45    16    50 1   
    46    16    51 1   
    47    17    20 1   
    48    17    52 1   
    49    18    53 1   
    50    18    54 1   
    51    18    55 1   
    52    19    56 1   
    53    19    57 1   
    54    19    58 1   
    55    20    21 1   
    56    20    22 1   
    57    20    59 1   
    58    21    60 1   
    59    21    61 1   
    60    21    62 1   
    61    22    23 1   
    62    22    63 1   
    63    22    64 1   
    64    23    24 1   
    65    23    65 1   
    66    23    66 1   
    67    24    25 1   
    68    24    67 1   
    69    24    68 1   
    70    25    26 1   
    71    25    27 1   
    72    25    69 1   
    73    26    70 1   
    74    26    71 1   
    75    26    72 1   
    76    27    73 1   
    77    27    74 1   
    78    27    75 1   
    79    28    76 1   
@<TRIPOS>SUBSTRUCTURE
     1 QNJ         1 TEMP              0 ****  ****    0 ROOT
