@<TRIPOS>MOLECULE
QNK
   66    71     1     0     0
SMALL
abcg2


@<TRIPOS>ATOM
      1 C1          18.6980    -9.0240    11.2730 c6         1 QNK       0.200500
      2 C2          19.1870    -8.4540    12.6000 c6         1 QNK      -0.024100
      3 C3          20.2210    -9.3510    13.2160 ca         1 QNK       0.003700
      4 C7          22.1880    -9.6880    14.6970 ca         1 QNK      -0.060000
      5 C8          21.4160    -7.5930    14.7050 cc         1 QNK      -0.189100
      6 C9          21.1740    -8.8470    14.1390 ca         1 QNK      -0.141000
      7 C10         19.3250   -11.3280    11.9180 c6         1 QNK       0.220500
      8 C12         15.9380   -10.8930    10.8000 cx         1 QNK       0.149000
      9 C13         15.2710   -11.9120    11.6490 cx         1 QNK      -0.144400
     10 C14         14.9450   -11.8000    10.1650 cx         1 QNK      -0.144400
     11 C15         18.7240   -12.5830    12.5330 ca         1 QNK       0.297300
     12 C16         18.8120   -13.8130    11.8960 ca         1 QNK      -0.126000
     13 C19         17.2480   -17.2410    13.9600 cy         1 QNK       0.185500
     14 C20         16.6380   -18.3390    14.8430 cy         1 QNK       0.121300
     15 C22         17.8110   -21.2740    15.9540 c3         1 QNK      -0.104400
     16 C24         18.6130   -17.9130    14.2630 cy         1 QNK       0.121300
     17 F1          15.9130   -22.5950    16.5470 f          1 QNK      -0.280000
     18 C23         16.3390   -21.2670    16.3000 c3         1 QNK       0.180600
     19 N4          17.8770   -19.1350    14.6600 nq         1 QNK      -0.710600
     20 N3          16.9980   -15.8820    14.3560 nu         1 QNK      -0.930200
     21 C18         17.6110   -14.8270    13.7110 ca         1 QNK       0.251000
     22 C17         18.2600   -14.9470    12.4790 ca         1 QNK      -0.149000
     23 C25         17.5800   -13.5390    14.2830 ca         1 QNK       0.276900
     24 N5          18.1130   -12.4660    13.7200 nb         1 QNK      -0.598000
     25 N2          18.2590   -10.4070    11.5090 n3         1 QNK      -0.739600
     26 F           15.4940    -9.5760    10.9960 f          1 QNK      -0.247000
     27 C           19.7500    -8.8680    10.1650 c3         1 QNK      -0.127100
     28 C4          20.3000   -10.6820    12.8870 ca         1 QNK      -0.092300
     29 C5          21.3240   -11.5120    13.4390 ca         1 QNK      -0.084000
     30 C6          22.2580   -11.0510    14.3260 ca         1 QNK      -0.091000
     31 N1          22.4810    -7.7540    15.5110 na         1 QNK      -0.003500
     32 N           22.9840    -9.0010    15.5400 nc         1 QNK      -0.286400
     33 H1          17.8050    -8.4740    10.9740 h1         1 QNK       0.069700
     34 H2          19.6050    -7.4560    12.4480 hc         1 QNK       0.059200
     35 H3          18.3370    -8.3430    13.2800 hc         1 QNK       0.059200
     36 H4          20.9260    -6.6410    14.6000 h4         1 QNK       0.225000
     37 H5          19.9080   -11.6620    11.0430 h1         1 QNK       0.027700
     38 H6          17.6490   -11.9720    10.2370 h1         1 QNK       0.044200
     39 H7          17.5460   -10.3840     9.5150 h1         1 QNK       0.044200
     40 H8          14.5200   -11.5600    12.3430 hc         1 QNK       0.082700
     41 H9          15.8610   -12.7500    11.9920 hc         1 QNK       0.082700
     42 H10         13.9860   -11.3720     9.9030 hc         1 QNK       0.082700
     43 H11         15.3120   -12.5650     9.4930 hc         1 QNK       0.082700
     44 H12         19.3190   -13.8900    10.9430 ha         1 QNK       0.117000
     45 H13         16.9700   -17.3760    12.9150 h1         1 QNK       0.087700
     46 H14         16.5140   -17.9930    15.8790 h1         1 QNK       0.054700
     47 H15         15.7160   -18.8130    14.5060 h1         1 QNK       0.054700
     48 H16         19.4840   -19.9930    15.6200 h1         1 QNK       0.036200
     49 H17         18.2940   -19.3070    16.7270 h1         1 QNK       0.036200
     50 H18         18.3480   -21.7850    16.7570 hc         1 QNK       0.063200
     51 H19         17.9630   -21.8430    15.0340 hc         1 QNK       0.063200
     52 H20         19.3270   -18.0480    13.4490 h1         1 QNK       0.054700
     53 H21         19.1070   -17.4190    15.1110 h1         1 QNK       0.054700
     54 H22         15.7190   -20.8930    15.4870 h1         1 QNK       0.044200
     55 H23         16.1380   -20.6960    17.2080 h1         1 QNK       0.044200
     56 H25         16.8610   -15.7480    15.3480 hn         1 QNK       0.467000
     57 H26         18.3430   -15.9030    11.9840 ha         1 QNK       0.121000
     58 H27         17.0950   -13.4030    15.2460 h4         1 QNK       0.018100
     59 H29         19.9350    -7.8090     9.9750 hc         1 QNK       0.038700
     60 H30         20.6970    -9.3310    10.4440 hc         1 QNK       0.038700
     61 H31         19.4130    -9.3210     9.2310 hc         1 QNK       0.038700
     62 H32         21.3510   -12.5530    13.1390 ha         1 QNK       0.108000
     63 H33         23.0250   -11.7000    14.7300 ha         1 QNK       0.125000
     64 H34         22.9120    -7.0370    16.0760 hn         1 QNK       0.370000
     65 C11         17.3980   -10.9340    10.4510 c3         1 QNK       0.200800
     66 C21         18.4120   -19.8780    15.7900 c3         1 QNK       0.165800
@<TRIPOS>BOND
     1     1     2 1   
     2     1    25 1   
     3     1    27 1   
     4     1    33 1   
     5     2     3 1   
     6     2    34 1   
     7     2    35 1   
     8     3     6 ar  
     9     3    28 ar  
    10     4     6 ar  
    11     4    30 ar  
    12     4    32 2   
    13     5     6 2   
    14     5    31 1   
    15     5    36 1   
    16     7    11 1   
    17     7    25 1   
    18     7    28 1   
    19     7    37 1   
    20     8     9 1   
    21     8    10 1   
    22     8    26 1   
    23     8    65 1   
    24     9    10 1   
    25     9    40 1   
    26     9    41 1   
    27    10    42 1   
    28    10    43 1   
    29    11    12 ar  
    30    11    24 ar  
    31    12    22 ar  
    32    12    44 1   
    33    13    14 1   
    34    13    16 1   
    35    13    20 1   
    36    13    45 1   
    37    14    19 1   
    38    14    46 1   
    39    14    47 1   
    40    15    18 1   
    41    15    50 1   
    42    15    51 1   
    43    15    66 1   
    44    16    19 1   
    45    16    52 1   
    46    16    53 1   
    47    17    18 1   
    48    18    54 1   
    49    18    55 1   
    50    19    66 1   
    51    20    21 1   
    52    20    56 1   
    53    21    22 ar  
    54    21    23 ar  
    55    22    57 1   
    56    23    24 ar  
    57    23    58 1   
    58    25    65 1   
    59    27    59 1   
    60    27    60 1   
    61    27    61 1   
    62    28    29 ar  
    63    29    30 ar  
    64    29    62 1   
    65    30    63 1   
    66    31    32 1   
    67    31    64 1   
    68    38    65 1   
    69    39    65 1   
    70    48    66 1   
    71    49    66 1   
@<TRIPOS>SUBSTRUCTURE
     1 QNK         1 TEMP              0 ****  ****    0 ROOT
