@<TRIPOS>MOLECULE
QNK
   66    71     1     0     0
SMALL
No Charge or Current Charge


@<TRIPOS>ATOM
      1 C1          18.6250    -9.1210    11.1960 c6         1 QNK       0.200500
      2 C2          19.1610    -8.4000    12.4540 c6         1 QNK      -0.024100
      3 C3          20.1990    -9.2300    13.2020 ca         1 QNK       0.003700
      4 C7          22.1010    -9.3360    14.7310 ca         1 QNK      -0.060000
      5 C8          21.3370    -7.2650    14.4150 cc         1 QNK      -0.189100
      6 C9          21.1390    -8.6280    14.0560 ca         1 QNK      -0.141000
      7 C10         19.2440   -11.3670    12.1270 c6         1 QNK       0.220500
      8 C12         16.0600   -10.4400    10.0600 cx         1 QNK       0.149000
      9 C13         15.0140   -10.0160    11.0650 cx         1 QNK      -0.144400
     10 C14         14.7170   -11.1340    10.0970 cx         1 QNK      -0.144400
     11 C15         18.7090   -12.6620    12.8050 ca         1 QNK       0.297300
     12 C16         18.9770   -13.9260    12.2370 ca         1 QNK      -0.126000
     13 C19         17.3850   -17.5200    14.3310 cy         1 QNK       0.185500
     14 C20         16.8860   -18.6280    15.3290 cy         1 QNK       0.121300
     15 C22         17.6460   -21.8590    15.4550 c3         1 QNK      -0.104400
     16 C24         18.7810   -18.2040    14.5640 cy         1 QNK       0.121300
     17 F1          15.7810   -22.9600    16.4220 f          1 QNK      -0.280000
     18 C23         16.4280   -21.7680    16.3940 c3         1 QNK       0.180600
     19 N4          17.9900   -19.4610    14.7530 nq         1 QNK      -0.710600
     20 N3          17.2140   -16.1050    14.6910 nu         1 QNK      -0.930200
     21 C18         17.7280   -14.9650    14.0360 ca         1 QNK       0.251000
     22 C17         18.4840   -15.0900    12.8550 ca         1 QNK      -0.149000
     23 C25         17.5070   -13.6510    14.5350 ca         1 QNK       0.276900
     24 N5          17.9790   -12.5240    13.9450 nb         1 QNK      -0.598000
     25 N2          18.1530   -10.4900    11.5630 n3         1 QNK      -0.739600
     26 F           16.3080    -9.6090     9.0050 f          1 QNK      -0.247000
     27 C           19.6690    -9.1050    10.0390 c3         1 QNK      -0.127100
     28 C4          20.2440   -10.6360    13.0540 ca         1 QNK      -0.092300
     29 C5          21.2460   -11.3740    13.7380 ca         1 QNK      -0.084000
     30 C6          22.1750   -10.7280    14.5810 ca         1 QNK      -0.091000
     31 N1          22.4180    -7.2540    15.2920 na         1 QNK      -0.003500
     32 N           22.9320    -8.5370    15.5190 nc         1 QNK      -0.286400
     33 H1          17.7720    -8.5210    10.8460 h1         1 QNK       0.069700
     34 H2          19.5780    -7.4240    12.1730 hc         1 QNK       0.059200
     35 H3          18.3230    -8.1920    13.1320 hc         1 QNK       0.059200
     36 H4          20.8270    -6.3480    14.1380 h4         1 QNK       0.225000
     37 H5          19.8540   -11.7030    11.2760 h1         1 QNK       0.027700
     38 H6          17.0150   -12.1560    10.8920 h1         1 QNK       0.044200
     39 H7          17.9500   -11.3830     9.6300 h1         1 QNK       0.044200
     40 H8          14.5240    -9.0590    10.9080 hc         1 QNK       0.082700
     41 H9          15.1850   -10.2750    12.1070 hc         1 QNK       0.082700
     42 H10         14.0230   -10.9320     9.2850 hc         1 QNK       0.082700
     43 H11         14.6740   -12.1460    10.4910 hc         1 QNK       0.082700
     44 H12         19.5610   -14.0010    11.3230 ha         1 QNK       0.117000
     45 H13         17.0030   -17.6760    13.3130 h1         1 QNK       0.087700
     46 H14         17.0090   -18.3600    16.3860 h1         1 QNK       0.054700
     47 H15         15.8640   -18.9740    15.1400 h1         1 QNK       0.054700
     48 H16         19.4980   -20.8820    14.9640 h1         1 QNK       0.036200
     49 H17         18.8000   -20.3300    16.4970 h1         1 QNK       0.036200
     50 H18         18.2500   -22.7210    15.7610 hc         1 QNK       0.063200
     51 H19         17.3080   -22.0580    14.4310 hc         1 QNK       0.063200
     52 H20         19.4540   -18.1830    13.6990 h1         1 QNK       0.054700
     53 H21         19.3030   -17.8430    15.4590 h1         1 QNK       0.054700
     54 H22         15.7250   -21.0030    16.0480 h1         1 QNK       0.044200
     55 H23         16.7520   -21.5230    17.4140 h1         1 QNK       0.044200
     56 H25         16.6680   -15.9080    15.5340 hn         1 QNK       0.467000
     57 H26         18.6870   -16.0630    12.4170 ha         1 QNK       0.121000
     58 H27         16.9280   -13.5000    15.4450 h4         1 QNK       0.018100
     59 H29         19.9530    -8.0770     9.7870 hc         1 QNK       0.038700
     60 H30         20.5880    -9.6410    10.3040 hc         1 QNK       0.038700
     61 H31         19.2670    -9.5580     9.1260 hc         1 QNK       0.038700
     62 H32         21.3090   -12.4520    13.6170 ha         1 QNK       0.108000
     63 H33         22.9370   -11.3000    15.1040 ha         1 QNK       0.125000
     64 H34         22.8290    -6.4390    15.7430 hn         1 QNK       0.370000
     65 C11         17.3340   -11.1750    10.5150 c3         1 QNK       0.200800
     66 C21         18.5580   -20.6130    15.4640 c3         1 QNK       0.165800
@<TRIPOS>BOND
     1     1     2 1   
     2     1    25 1   
     3     1    27 1   
     4     1    33 1   
     5     2     3 1   
     6     2    34 1   
     7     2    35 1   
     8     3     6 ar  
     9     3    28 ar  
    10     4     6 ar  
    11     4    30 ar  
    12     4    32 2   
    13     5     6 2   
    14     5    31 1   
    15     5    36 1   
    16     7    11 1   
    17     7    25 1   
    18     7    28 1   
    19     7    37 1   
    20     8     9 1   
    21     8    10 1   
    22     8    26 1   
    23     8    65 1   
    24     9    10 1   
    25     9    40 1   
    26     9    41 1   
    27    10    42 1   
    28    10    43 1   
    29    11    12 ar  
    30    11    24 ar  
    31    12    22 ar  
    32    12    44 1   
    33    13    14 1   
    34    13    16 1   
    35    13    20 1   
    36    13    45 1   
    37    14    19 1   
    38    14    46 1   
    39    14    47 1   
    40    15    18 1   
    41    15    50 1   
    42    15    51 1   
    43    15    66 1   
    44    16    19 1   
    45    16    52 1   
    46    16    53 1   
    47    17    18 1   
    48    18    54 1   
    49    18    55 1   
    50    19    66 1   
    51    20    21 1   
    52    20    56 1   
    53    21    22 ar  
    54    21    23 ar  
    55    22    57 1   
    56    23    24 ar  
    57    23    58 1   
    58    25    65 1   
    59    27    59 1   
    60    27    60 1   
    61    27    61 1   
    62    28    29 ar  
    63    29    30 ar  
    64    29    62 1   
    65    30    63 1   
    66    31    32 1   
    67    31    64 1   
    68    38    65 1   
    69    39    65 1   
    70    48    66 1   
    71    49    66 1   
@<TRIPOS>SUBSTRUCTURE
     1 QNK         1 TEMP              0 ****  ****    0 ROOT
