@<TRIPOS>MOLECULE
QNL
   39    40     1     0     0
SMALL
No Charge or Current Charge


@<TRIPOS>ATOM
      1 CE1         -4.8750    -1.9620     1.0170 c3         1 QNL      -0.088600
      2 CD          -4.8750    -1.0640    -0.2440 c3         1 QNL      -0.063700
      3 CE2         -6.2630    -0.4210    -0.4680 c3         1 QNL      -0.088600
      4 CG          -3.7620     0.0130    -0.2030 c3         1 QNL       0.163600
      5 OB          -2.4890    -0.6550    -0.1580 os         1 QNL      -0.337100
      6 C8          -1.2890     0.0310    -0.1040 ca         1 QNL       0.196100
      7 C9          -1.2360     1.4350    -0.1080 ca         1 QNL      -0.240000
      8 C10          0.0110     2.0820    -0.0510 ca         1 QNL       0.298500
      9 C            0.0920     3.6030    -0.0540 c          1 QNL       0.481400
     10 O           -0.8820     4.3550    -0.1050 o          1 QNL      -0.505100
     11 N11          1.1720     1.3760     0.0080 nb         1 QNL      -0.695000
     12 C7           1.1450     0.0180     0.0140 ca         1 QNL       0.246000
     13 C6          -0.0810    -0.6940    -0.0420 ca         1 QNL      -0.062000
     14 C5          -0.0840    -2.1050    -0.0340 ca         1 QNL      -0.108000
     15 C4           1.1230    -2.8120     0.0280 ca         1 QNL      -0.080000
     16 C3           2.3410    -2.1220     0.0830 ca         1 QNL      -0.136000
     17 C2           2.3650    -0.7080     0.0760 ca         1 QNL       0.001000
     18 N            3.5780     0.0410     0.1310 ns         1 QNL      -0.138000
     19 CN           4.9140    -0.3250     0.1960 c          1 QNL       0.609100
     20 CH3          5.8790     0.8570     0.2380 c3         1 QNL      -0.179100
     21 ON           5.3210    -1.4800     0.2200 o          1 QNL      -0.586100
     22 H1          -5.0480    -1.3650     1.9210 hc         1 QNL       0.038867
     23 H2          -5.6640    -2.7210     0.9520 hc         1 QNL       0.038867
     24 H3          -3.9180    -2.4840     1.1300 hc         1 QNL       0.038867
     25 H4          -4.6740    -1.7080    -1.1100 hc         1 QNL       0.061700
     26 H5          -6.5260     0.2420     0.3660 hc         1 QNL       0.038867
     27 H6          -6.2720     0.1700    -1.3920 hc         1 QNL       0.038867
     28 H7          -7.0390    -1.1910    -0.5520 hc         1 QNL       0.038867
     29 H8          -3.8310     0.6410    -1.1000 h1         1 QNL       0.043700
     30 H9          -3.9000     0.6490     0.6810 h1         1 QNL       0.043700
     31 H10         -2.1370     2.0370    -0.1550 ha         1 QNL       0.146000
     32 H11          1.1220     4.0230    -0.0070 h4         1 QNL       0.010200
     33 H12         -1.0180    -2.6610    -0.0760 ha         1 QNL       0.132000
     34 H13          1.1140    -3.9000     0.0330 ha         1 QNL       0.118000
     35 H14          3.2550    -2.7050     0.1300 ha         1 QNL       0.153000
     36 H15          3.4240     1.0410     0.1200 hn         1 QNL       0.179000
     37 H16          5.6090     1.5090     1.0770 hc         1 QNL       0.064367
     38 H17          6.9280     0.5450     0.2890 hc         1 QNL       0.064367
     39 H18          5.6900     1.5020    -0.6280 hc         1 QNL       0.064367
@<TRIPOS>BOND
     1     1     2 1   
     2     1    22 1   
     3     1    23 1   
     4     1    24 1   
     5     2     3 1   
     6     2     4 1   
     7     2    25 1   
     8     3    26 1   
     9     3    27 1   
    10     3    28 1   
    11     4     5 1   
    12     4    29 1   
    13     4    30 1   
    14     5     6 1   
    15     6     7 ar  
    16     6    13 ar  
    17     7     8 ar  
    18     7    31 1   
    19     8     9 1   
    20     8    11 ar  
    21     9    10 2   
    22     9    32 1   
    23    11    12 ar  
    24    12    13 ar  
    25    12    17 ar  
    26    13    14 ar  
    27    14    15 ar  
    28    14    33 1   
    29    15    16 ar  
    30    15    34 1   
    31    16    17 ar  
    32    16    35 1   
    33    17    18 1   
    34    18    19 1   
    35    18    36 1   
    36    19    20 1   
    37    19    21 2   
    38    20    37 1   
    39    20    38 1   
    40    20    39 1   
@<TRIPOS>SUBSTRUCTURE
     1 QNL         1 TEMP              0 ****  ****    0 ROOT
