@<TRIPOS>MOLECULE
QNL
   39    40     1     0     0
SMALL
bcc


@<TRIPOS>ATOM
      1 CE1         -4.7760    -1.9550     0.9960 c3         1 QNL      -0.088600
      2 CD          -4.8160    -1.0590    -0.2380 c3         1 QNL      -0.063700
      3 CE2         -6.1550    -0.3340    -0.3520 c3         1 QNL      -0.088600
      4 CG          -3.7080    -0.0230    -0.2250 c3         1 QNL       0.140400
      5 OB          -2.4500    -0.6930    -0.2010 os         1 QNL      -0.313900
      6 C8          -1.3340     0.0160    -0.1290 ca         1 QNL       0.196100
      7 C9          -1.2700     1.3890    -0.0970 ca         1 QNL      -0.323300
      8 C10         -0.0030     1.9900    -0.0220 ca         1 QNL       0.363800
      9 C            0.1340     3.4660     0.0180 c          1 QNL       0.481400
     10 O           -0.7970     4.2310    -0.0090 o          1 QNL      -0.505100
     11 N11          1.1290     1.3340     0.0190 nb         1 QNL      -0.695000
     12 C7           1.0870    -0.0110    -0.0100 ca         1 QNL       0.376600
     13 C6          -0.1230    -0.7380    -0.0840 ca         1 QNL      -0.127300
     14 C5          -0.0950    -2.1450    -0.1080 ca         1 QNL      -0.126000
     15 C4           1.1140    -2.7870    -0.0600 ca         1 QNL      -0.098000
     16 C3           2.3310    -2.0870     0.0130 ca         1 QNL      -0.154000
     17 C2           2.3350    -0.7110     0.0390 ca         1 QNL       0.028300
     18 N            3.4570     0.1010     0.1080 ns         1 QNL      -0.464100
     19 CN           4.7690    -0.2500     0.1800 c          1 QNL       0.676100
     20 CH3          5.7180     0.9190     0.2390 c3         1 QNL      -0.179100
     21 ON           5.1620    -1.4030     0.1930 o          1 QNL      -0.586100
     22 H1          -4.8620    -1.3640     1.9110 hc         1 QNL       0.038867
     23 H2          -5.6060    -2.6620     0.9800 hc         1 QNL       0.038867
     24 H3          -3.8540    -2.5320     1.0550 hc         1 QNL       0.038867
     25 H4          -4.6890    -1.6820    -1.1300 hc         1 QNL       0.061700
     26 H5          -6.3230     0.3220     0.5050 hc         1 QNL       0.038867
     27 H6          -6.2060     0.2760    -1.2550 hc         1 QNL       0.038867
     28 H7          -6.9770    -1.0480    -0.3880 hc         1 QNL       0.038867
     29 H8          -3.7660     0.6150    -1.1130 h1         1 QNL       0.043700
     30 H9          -3.8020     0.6190     0.6590 h1         1 QNL       0.043700
     31 H10         -2.1510     2.0140    -0.1290 ha         1 QNL       0.164000
     32 H11          1.1810     3.8110     0.0760 h4         1 QNL       0.010200
     33 H12         -1.0120    -2.7140    -0.1640 ha         1 QNL       0.150000
     34 H13          1.1450    -3.8680    -0.0780 ha         1 QNL       0.136000
     35 H14          3.2520    -2.6450     0.0480 ha         1 QNL       0.171000
     36 H15          3.2370     1.0880     0.1060 hn         1 QNL       0.345500
     37 H16          5.2230     1.8880     0.2280 hc         1 QNL       0.064367
     38 H17          6.3200     0.8490     1.1450 hc         1 QNL       0.064367
     39 H18          6.4000     0.8700    -0.6090 hc         1 QNL       0.064367
@<TRIPOS>BOND
     1     1     2 1   
     2     1    22 1   
     3     1    23 1   
     4     1    24 1   
     5     2     3 1   
     6     2     4 1   
     7     2    25 1   
     8     3    26 1   
     9     3    27 1   
    10     3    28 1   
    11     4     5 1   
    12     4    29 1   
    13     4    30 1   
    14     5     6 1   
    15     6     7 ar  
    16     6    13 ar  
    17     7     8 ar  
    18     7    31 1   
    19     8     9 1   
    20     8    11 ar  
    21     9    10 2   
    22     9    32 1   
    23    11    12 ar  
    24    12    13 ar  
    25    12    17 ar  
    26    13    14 ar  
    27    14    15 ar  
    28    14    33 1   
    29    15    16 ar  
    30    15    34 1   
    31    16    17 ar  
    32    16    35 1   
    33    17    18 1   
    34    18    19 1   
    35    18    36 1   
    36    19    20 1   
    37    19    21 2   
    38    20    37 1   
    39    20    38 1   
    40    20    39 1   
@<TRIPOS>SUBSTRUCTURE
     1 QNL         1 TEMP              0 ****  ****    0 ROOT
