@<TRIPOS>MOLECULE
QNM
   31    32     1     0     0
SMALL
abcg2


@<TRIPOS>ATOM
      1 OAK         -5.7940     0.3590    -0.5050 o          1 QNM      -0.727500
      2 CAI         -4.5680     0.3330    -0.6950 c          1 QNM       0.712000
      3 OAJ         -3.9520     0.6040    -1.7450 o          1 QNM      -0.727500
      4 C4          -3.7180    -0.1160     0.5130 c3         1 QNM      -0.072000
      5 N3          -2.3120     0.0630     0.2300 ns         1 QNM      -0.499900
      6 C2          -1.3320    -0.5180     0.9630 c          1 QNM       0.615300
      7 O2          -1.5540    -1.1660     1.9710 o          1 QNM      -0.594100
      8 C6           0.4540     1.0660     0.2590 cc         1 QNM       0.415100
      9 O6          -0.3570     2.1020     0.3870 oh         1 QNM      -0.560100
     10 CAL          2.1120     2.7860    -0.2910 c3         1 QNM       0.207100
     11 CAN          2.6790     0.4030    -0.2220 ca         1 QNM       0.328000
     12 CAO          3.9980     0.7320    -0.5620 ca         1 QNM      -0.176000
     13 CA0          0.0490    -0.2380     0.4780 cd         1 QNM      -0.449400
     14 CAP          4.9420    -0.2630    -0.7140 ca         1 QNM      -0.071000
     15 CAQ          4.6050    -1.6040    -0.5350 ca         1 QNM      -0.161000
     16 CAR          3.3100    -1.9300    -0.1990 ca         1 QNM      -0.028000
     17 CAS          2.3350    -0.9420    -0.0360 ca         1 QNM      -0.190600
     18 CAT          0.9650    -1.3280     0.3340 c          1 QNM       0.619900
     19 NAN          1.7200     1.3970    -0.0740 na         1 QNM      -0.662200
     20 OAU          0.6500    -2.5080     0.4860 o          1 QNM      -0.558100
     21 H41C        -4.0100     0.4520     1.3990 h1         1 QNM       0.038200
     22 H42C        -3.9410    -1.1670     0.7260 h1         1 QNM       0.038200
     23 H3          -2.1400     0.2620    -0.7510 hn         1 QNM       0.336500
     24 HAL1         1.2680     3.4470    -0.1530 h1         1 QNM       0.053033
     25 HAL2         2.8890     3.0710     0.4170 h1         1 QNM       0.053033
     26 HAL3         2.4860     2.9160    -1.3050 h1         1 QNM       0.053033
     27 HAO          4.3000     1.7580    -0.7100 ha         1 QNM       0.111000
     28 HAP          5.9550     0.0120    -0.9770 ha         1 QNM       0.104000
     29 HAQ          5.3510    -2.3760    -0.6590 ha         1 QNM       0.111000
     30 HAR          3.0260    -2.9630    -0.0530 ha         1 QNM       0.138000
     31 HO6         -1.2730     1.7980     0.5240 ho         1 QNM       0.545000
@<TRIPOS>BOND
     1     1     2 1   
     2     2     3 1   
     3     2     4 1   
     4     4     5 1   
     5     4    21 1   
     6     4    22 1   
     7     5     6 1   
     8     5    23 1   
     9     6     7 2   
    10     6    13 1   
    11     8     9 1   
    12     8    13 2   
    13     8    19 1   
    14     9    31 1   
    15    10    19 1   
    16    10    24 1   
    17    10    25 1   
    18    10    26 1   
    19    11    12 ar  
    20    11    17 ar  
    21    11    19 1   
    22    12    14 ar  
    23    12    27 1   
    24    13    18 1   
    25    14    15 ar  
    26    14    28 1   
    27    15    16 ar  
    28    15    29 1   
    29    16    17 ar  
    30    16    30 1   
    31    17    18 1   
    32    18    20 2   
@<TRIPOS>SUBSTRUCTURE
     1 QNM         1 TEMP              0 ****  ****    0 ROOT
