@<TRIPOS>MOLECULE
QNM
   31    32     1     0     0
SMALL
No Charge or Current Charge


@<TRIPOS>ATOM
      1 OAK         -5.6390     0.6820    -0.7470 o          1 QNM      -0.727500
      2 CAI         -4.6560     1.0000    -0.0940 c          1 QNM       0.712000
      3 OAJ         -4.2860     2.1580     0.0480 o          1 QNM      -0.727500
      4 C4          -3.7920    -0.1310     0.5300 c3         1 QNM      -0.072000
      5 N3          -2.3410     0.0670     0.2890 ns         1 QNM      -0.499900
      6 C2          -1.3600    -0.8610     0.5570 c          1 QNM       0.615300
      7 O2          -1.6560    -1.9600     0.9960 o          1 QNM      -0.594100
      8 C6           0.3720     0.9180     0.1680 cc         1 QNM       0.415100
      9 O6          -0.3820     1.9710     0.4980 oh         1 QNM      -0.560100
     10 CAL          1.8370     2.5080    -1.1230 c3         1 QNM       0.207100
     11 CAN          2.6740     0.3360    -0.2660 ca         1 QNM       0.328000
     12 CAO          4.0130     0.7940    -0.3040 ca         1 QNM      -0.176000
     13 CA0          0.0260    -0.4200     0.2470 cd         1 QNM      -0.449400
     14 CAP          5.0870    -0.1050    -0.1990 ca         1 QNM      -0.071000
     15 CAQ          4.8350    -1.4750    -0.0480 ca         1 QNM      -0.161000
     16 CAR          3.5120    -1.9380     0.0110 ca         1 QNM      -0.028000
     17 CAS          2.4390    -1.0240    -0.0900 ca         1 QNM      -0.190600
     18 CAT          1.0360    -1.4700     0.0220 c          1 QNM       0.619900
     19 NAN          1.5980     1.2220    -0.4080 na         1 QNM      -0.662200
     20 OAU          0.7720    -2.6630    -0.0650 o          1 QNM      -0.558100
     21 H41C        -3.9790    -0.1520     1.6110 h1         1 QNM       0.038200
     22 H42C        -4.1020    -1.0920     0.1000 h1         1 QNM       0.038200
     23 H3          -2.0480     0.9220    -0.1720 hn         1 QNM       0.336500
     24 HAL1         0.8990     2.8910    -1.5450 h1         1 QNM       0.053033
     25 HAL2         2.2440     3.2530    -0.4270 h1         1 QNM       0.053033
     26 HAL3         2.5420     2.3610    -1.9520 h1         1 QNM       0.053033
     27 HAO          4.2400     1.8500    -0.4100 ha         1 QNM       0.111000
     28 HAP          6.1110     0.2610    -0.2330 ha         1 QNM       0.104000
     29 HAQ          5.6620    -2.1770     0.0340 ha         1 QNM       0.111000
     30 HAR          3.3240    -3.0010     0.1480 ha         1 QNM       0.138000
     31 HO6         -0.8410     1.7170     1.3270 ho         1 QNM       0.545000
@<TRIPOS>BOND
     1     1     2 1   
     2     2     3 1   
     3     2     4 1   
     4     4     5 1   
     5     4    21 1   
     6     4    22 1   
     7     5     6 1   
     8     5    23 1   
     9     6     7 2   
    10     6    13 1   
    11     8     9 1   
    12     8    13 2   
    13     8    19 1   
    14     9    31 1   
    15    10    19 1   
    16    10    24 1   
    17    10    25 1   
    18    10    26 1   
    19    11    12 ar  
    20    11    17 ar  
    21    11    19 1   
    22    12    14 ar  
    23    12    27 1   
    24    13    18 1   
    25    14    15 ar  
    26    14    28 1   
    27    15    16 ar  
    28    15    29 1   
    29    16    17 ar  
    30    16    30 1   
    31    17    18 1   
    32    18    20 2   
@<TRIPOS>SUBSTRUCTURE
     1 QNM         1 TEMP              0 ****  ****    0 ROOT
