@<TRIPOS>MOLECULE
QNN
   23    24     1     0     0
SMALL
No Charge or Current Charge


@<TRIPOS>ATOM
      1 C1         153.9380    -5.2090    37.2290 c3         1 QNN      -0.074100
      2 C6         157.4670    -5.6320    35.7200 c6         1 QNN       0.144300
      3 C2         155.0840    -5.6300    36.2640 c6         1 QNN       0.058500
      4 C7         156.4230    -3.5570    36.4260 c6         1 QNN       0.144300
      5 C8         156.0750    -3.1940    34.9420 c6         1 QNN      -0.101900
      6 C3         154.7090    -5.2860    34.7890 c          1 QNN       0.550100
      7 C4         155.8270    -4.4830    34.0920 c6         1 QNN      -0.174700
      8 C5         157.1510    -5.3040    34.2200 c6         1 QNN      -0.101900
      9 N1         156.4300    -5.0430    36.6260 n3         1 QNN      -0.676600
     10 O1         153.6590    -5.6050    34.2410 o          1 QNN      -0.509100
     11 H1         154.2120    -5.4060    38.2720 hc         1 QNN       0.045700
     12 H2         153.6950    -4.1440    37.1380 hc         1 QNN       0.045700
     13 H3         153.0220    -5.7740    37.0180 hc         1 QNN       0.045700
     14 H5         158.4640    -5.2410    35.9740 h1         1 QNN       0.057950
     15 H6         155.1480    -6.7270    36.3010 h1         1 QNN       0.081700
     16 H7         157.4100    -3.1380    36.6740 h1         1 QNN       0.057950
     17 H8         155.7070    -3.0690    37.1030 h1         1 QNN       0.057950
     18 H9         156.8850    -2.5960    34.5030 hc         1 QNN       0.051950
     19 H10        155.1790    -2.5570    34.9220 hc         1 QNN       0.051950
     20 H11        155.5580    -4.2610    33.0510 hc         1 QNN       0.081700
     21 H12        157.0670    -6.2400    33.6500 hc         1 QNN       0.051950
     22 H13        157.9890    -4.7500    33.7740 hc         1 QNN       0.051950
     23 H4         157.5170    -6.7240    35.8510 h1         1 QNN       0.057950
@<TRIPOS>BOND
     1     1     3 1   
     2     1    11 1   
     3     1    12 1   
     4     1    13 1   
     5     2     8 1   
     6     2     9 1   
     7     2    14 1   
     8     2    23 1   
     9     3     6 1   
    10     3     9 1   
    11     3    15 1   
    12     4     5 1   
    13     4     9 1   
    14     4    16 1   
    15     4    17 1   
    16     5     7 1   
    17     5    18 1   
    18     5    19 1   
    19     6     7 1   
    20     6    10 2   
    21     7     8 1   
    22     7    20 1   
    23     8    21 1   
    24     8    22 1   
@<TRIPOS>SUBSTRUCTURE
     1 QNN         1 TEMP              0 ****  ****    0 ROOT
