@<TRIPOS>MOLECULE
QNN
   23    24     1     0     0
SMALL
abcg2


@<TRIPOS>ATOM
      1 C1         153.9840    -5.1920    37.2010 c3         1 QNN      -0.074100
      2 C6         157.4170    -5.6220    35.7230 c6         1 QNN       0.144300
      3 C2         155.0950    -5.6000    36.2410 c6         1 QNN       0.058500
      4 C7         156.4090    -3.5850    36.3980 c6         1 QNN       0.144300
      5 C8         156.0350    -3.1980    34.9470 c6         1 QNN      -0.101900
      6 C3         154.7490    -5.2630    34.7940 c          1 QNN       0.550100
      7 C4         155.8550    -4.4880    34.1300 c6         1 QNN      -0.174700
      8 C5         157.1450    -5.3140    34.2300 c6         1 QNN      -0.101900
      9 N1         156.3980    -5.0340    36.5850 n3         1 QNN      -0.676600
     10 O1         153.7040    -5.5750    34.2700 o          1 QNN      -0.509100
     11 H1         154.2770    -5.4190    38.2250 hc         1 QNN       0.045700
     12 H2         153.7470    -4.1300    37.1410 hc         1 QNN       0.045700
     13 H3         153.0740    -5.7460    36.9780 hc         1 QNN       0.045700
     14 H5         158.3900    -5.2330    36.0280 h1         1 QNN       0.057950
     15 H6         155.1970    -6.6910    36.2990 h1         1 QNN       0.081700
     16 H7         157.4090    -3.2270    36.6490 h1         1 QNN       0.057950
     17 H8         155.7300    -3.1200    37.1140 h1         1 QNN       0.057950
     18 H9         156.8190    -2.5970    34.4820 hc         1 QNN       0.051950
     19 H10        155.1220    -2.6000    34.9190 hc         1 QNN       0.051950
     20 H11        155.6010    -4.2680    33.0930 hc         1 QNN       0.081700
     21 H12        157.0600    -6.2320    33.6450 hc         1 QNN       0.051950
     22 H13        157.9610    -4.7370    33.7900 hc         1 QNN       0.051950
     23 H4         157.4400    -6.7000    35.9000 h1         1 QNN       0.057950
@<TRIPOS>BOND
     1     1     3 1   
     2     1    11 1   
     3     1    12 1   
     4     1    13 1   
     5     2     8 1   
     6     2     9 1   
     7     2    14 1   
     8     2    23 1   
     9     3     6 1   
    10     3     9 1   
    11     3    15 1   
    12     4     5 1   
    13     4     9 1   
    14     4    16 1   
    15     4    17 1   
    16     5     7 1   
    17     5    18 1   
    18     5    19 1   
    19     6     7 1   
    20     6    10 2   
    21     7     8 1   
    22     7    20 1   
    23     8    21 1   
    24     8    22 1   
@<TRIPOS>SUBSTRUCTURE
     1 QNN         1 TEMP              0 ****  ****    0 ROOT
