@<TRIPOS>MOLECULE
QNO
   46    47     1     0     0
SMALL
bcc


@<TRIPOS>ATOM
      1 C29         -5.8040    -2.5770    -8.8090 c3         1 QNO      -0.088100
      2 C28         -5.3240    -2.8560    -7.3920 c3         1 QNO      -0.074400
      3 C27         -4.1760    -3.8570    -7.3390 c3         1 QNO      -0.075400
      4 C26         -3.6690    -4.1200    -5.9260 c3         1 QNO      -0.074400
      5 C25         -2.5130    -5.1110    -5.8750 c3         1 QNO      -0.074400
      6 C24         -1.9850    -5.3460    -4.4650 c3         1 QNO      -0.074400
      7 C23         -0.8080    -6.3130    -4.4190 c3         1 QNO      -0.073400
      8 C22         -0.2590    -6.5140    -3.0120 c3         1 QNO      -0.072400
      9 C21          0.9620    -7.4390    -2.9990 c3         1 QNO      -0.017100
     10 C2           1.5370    -7.5990    -1.6320 ca         1 QNO      -0.083600
     11 C3           2.6550    -6.8560    -1.2270 ca         1 QNO      -0.232000
     12 C4           3.1730    -6.9720     0.0340 ca         1 QNO       0.148100
     13 O41          4.2340    -6.2940     0.4770 oh         1 QNO      -0.481100
     14 C5           2.5500    -7.8720     0.9400 ca         1 QNO      -0.048000
     15 C51          3.0110    -8.0690     2.2590 ca         1 QNO      -0.098000
     16 C52          2.3760    -8.9480     3.0940 ca         1 QNO      -0.120000
     17 C62          1.2540    -9.6640     2.6430 ca         1 QNO      -0.118000
     18 C61          0.7810    -9.4960     1.3670 ca         1 QNO      -0.090000
     19 C6           1.4250    -8.5980     0.5000 ca         1 QNO      -0.047300
     20 N1           0.9340    -8.4410    -0.7890 na         1 QNO       0.190600
     21 OH          -0.0970    -9.1170    -1.1490 o          1 QNO      -0.352000
     22 H291        -6.6270    -1.8610    -8.8220 hc         1 QNO       0.031033
     23 H292        -6.1560    -3.4900    -9.2940 hc         1 QNO       0.031033
     24 H293        -5.0000    -2.1680    -9.4250 hc         1 QNO       0.031033
     25 H281        -6.1580    -3.2290    -6.7890 hc         1 QNO       0.036200
     26 H282        -5.0080    -1.9190    -6.9220 hc         1 QNO       0.036200
     27 H271        -3.3480    -3.4910    -7.9570 hc         1 QNO       0.036700
     28 H272        -4.4980    -4.8010    -7.7930 hc         1 QNO       0.036700
     29 H261        -4.4940    -4.4900    -5.3070 hc         1 QNO       0.037200
     30 H262        -3.3530    -3.1730    -5.4740 hc         1 QNO       0.037200
     31 H251        -1.6960    -4.7480    -6.5090 hc         1 QNO       0.036700
     32 H252        -2.8320    -6.0650    -6.3090 hc         1 QNO       0.036700
     33 H241        -2.7940    -5.7260    -3.8310 hc         1 QNO       0.038700
     34 H242        -1.6810    -4.3880    -4.0290 hc         1 QNO       0.038700
     35 H231        -1.1120    -7.2800    -4.8340 hc         1 QNO       0.037700
     36 H232        -0.0080    -5.9400    -5.0680 hc         1 QNO       0.037700
     37 H221         0.0230    -5.5450    -2.5900 hc         1 QNO       0.050200
     38 H222        -1.0360    -6.9280    -2.3650 hc         1 QNO       0.050200
     39 H211         0.6940    -8.4140    -3.4090 hc         1 QNO       0.062200
     40 H212         1.7360    -7.0180    -3.6440 hc         1 QNO       0.062200
     41 H3           3.1010    -6.1840    -1.9500 ha         1 QNO       0.149000
     42 H41          4.5740    -5.7040    -0.2060 ho         1 QNO       0.435000
     43 H51          3.8740    -7.5190     2.6090 ha         1 QNO       0.152000
     44 H52          2.7360    -9.0910     4.1040 ha         1 QNO       0.139000
     45 H62          0.7570   -10.3570     3.3080 ha         1 QNO       0.140000
     46 H61         -0.0820   -10.0430     1.0200 ha         1 QNO       0.177000
@<TRIPOS>BOND
     1     1     2 1   
     2     1    22 1   
     3     1    23 1   
     4     1    24 1   
     5     2     3 1   
     6     2    25 1   
     7     2    26 1   
     8     3     4 1   
     9     3    27 1   
    10     3    28 1   
    11     4     5 1   
    12     4    29 1   
    13     4    30 1   
    14     5     6 1   
    15     5    31 1   
    16     5    32 1   
    17     6     7 1   
    18     6    33 1   
    19     6    34 1   
    20     7     8 1   
    21     7    35 1   
    22     7    36 1   
    23     8     9 1   
    24     8    37 1   
    25     8    38 1   
    26     9    10 1   
    27     9    39 1   
    28     9    40 1   
    29    10    11 ar  
    30    10    20 2   
    31    11    12 ar  
    32    11    41 1   
    33    12    13 1   
    34    12    14 ar  
    35    13    42 1   
    36    14    15 ar  
    37    14    19 ar  
    38    15    16 ar  
    39    15    43 1   
    40    16    17 ar  
    41    16    44 1   
    42    17    18 ar  
    43    17    45 1   
    44    18    19 ar  
    45    18    46 1   
    46    19    20 1   
    47    20    21 1   
@<TRIPOS>SUBSTRUCTURE
     1 QNO         1 TEMP              0 ****  ****    0 ROOT
