@<TRIPOS>MOLECULE
QNO
   46    47     1     0     0
SMALL
No Charge or Current Charge


@<TRIPOS>ATOM
      1 C29         -5.9350    -2.5830    -8.8960 c3         1 QNO      -0.088100
      2 C28         -5.3720    -2.7860    -7.4760 c3         1 QNO      -0.074400
      3 C27         -4.2170    -3.8100    -7.4240 c3         1 QNO      -0.075400
      4 C26         -3.6530    -4.0140    -6.0010 c3         1 QNO      -0.074400
      5 C25         -2.4980    -5.0380    -5.9500 c3         1 QNO      -0.074400
      6 C24         -1.9340    -5.2410    -4.5270 c3         1 QNO      -0.074400
      7 C23         -0.7780    -6.2650    -4.4750 c3         1 QNO      -0.073400
      8 C22         -0.2150    -6.4680    -3.0520 c3         1 QNO      -0.072400
      9 C21          0.9410    -7.4910    -2.9960 c3         1 QNO      -0.017100
     10 C2           1.4920    -7.6620    -1.5780 ca         1 QNO      -0.083600
     11 C3           2.5730    -6.8600    -1.1600 ca         1 QNO      -0.214000
     12 C4           3.0940    -6.9920     0.1340 ca         1 QNO       0.148100
     13 O41          4.1430    -6.1990     0.5060 oh         1 QNO      -0.520100
     14 C5           2.5350    -7.9360     1.0280 ca         1 QNO      -0.048000
     15 C51          3.0520    -8.0880     2.3360 ca         1 QNO      -0.080000
     16 C52          2.4960    -9.0270     3.2190 ca         1 QNO      -0.102000
     17 C62          1.4190    -9.8240     2.8070 ca         1 QNO      -0.100000
     18 C61          0.8950    -9.6840     1.5120 ca         1 QNO      -0.072000
     19 C6           1.4430    -8.7410     0.6080 ca         1 QNO      -0.098000
     20 N1           0.9190    -8.5950    -0.6930 na         1 QNO       0.431300
     21 OH          -0.0620    -9.2740    -1.0510 o          1 QNO      -0.542000
     22 H291        -6.7500    -1.8500    -8.8820 hc         1 QNO       0.031033
     23 H292        -6.3280    -3.5250    -9.2970 hc         1 QNO       0.031033
     24 H293        -5.1550    -2.2150    -9.5740 hc         1 QNO       0.031033
     25 H281        -6.1830    -3.1190    -6.8160 hc         1 QNO       0.036200
     26 H282        -5.0210    -1.8210    -7.0900 hc         1 QNO       0.036200
     27 H271        -3.4090    -3.4750    -8.0870 hc         1 QNO       0.036700
     28 H272        -4.5720    -4.7730    -7.8130 hc         1 QNO       0.036700
     29 H261        -4.4610    -4.3490    -5.3380 hc         1 QNO       0.037200
     30 H262        -3.2980    -3.0510    -5.6130 hc         1 QNO       0.037200
     31 H251        -1.6900    -4.7030    -6.6130 hc         1 QNO       0.036700
     32 H252        -2.8520    -6.0010    -6.3380 hc         1 QNO       0.036700
     33 H241        -2.7410    -5.5760    -3.8640 hc         1 QNO       0.038700
     34 H242        -1.5790    -4.2780    -4.1380 hc         1 QNO       0.038700
     35 H231        -1.1330    -7.2280    -4.8630 hc         1 QNO       0.037700
     36 H232         0.0290    -5.9300    -5.1380 hc         1 QNO       0.037700
     37 H221         0.1400    -5.5060    -2.6620 hc         1 QNO       0.050200
     38 H222        -1.0220    -6.8030    -2.3880 hc         1 QNO       0.050200
     39 H211         0.5970    -8.4510    -3.4000 hc         1 QNO       0.062200
     40 H212         1.7410    -7.1590    -3.6690 hc         1 QNO       0.062200
     41 H3           3.0010    -6.1340    -1.8490 ha         1 QNO       0.131000
     42 H41          4.3800    -5.6210    -0.2500 ho         1 QNO       0.474000
     43 H51          3.8870    -7.4810     2.6760 ha         1 QNO       0.134000
     44 H52          2.9010    -9.1360     4.2220 ha         1 QNO       0.121000
     45 H62          0.9890   -10.5520     3.4920 ha         1 QNO       0.122000
     46 H61          0.0580   -10.3150     1.2160 ha         1 QNO       0.159000
@<TRIPOS>BOND
     1     1     2 1   
     2     1    22 1   
     3     1    23 1   
     4     1    24 1   
     5     2     3 1   
     6     2    25 1   
     7     2    26 1   
     8     3     4 1   
     9     3    27 1   
    10     3    28 1   
    11     4     5 1   
    12     4    29 1   
    13     4    30 1   
    14     5     6 1   
    15     5    31 1   
    16     5    32 1   
    17     6     7 1   
    18     6    33 1   
    19     6    34 1   
    20     7     8 1   
    21     7    35 1   
    22     7    36 1   
    23     8     9 1   
    24     8    37 1   
    25     8    38 1   
    26     9    10 1   
    27     9    39 1   
    28     9    40 1   
    29    10    11 ar  
    30    10    20 2   
    31    11    12 ar  
    32    11    41 1   
    33    12    13 1   
    34    12    14 ar  
    35    13    42 1   
    36    14    15 ar  
    37    14    19 ar  
    38    15    16 ar  
    39    15    43 1   
    40    16    17 ar  
    41    16    44 1   
    42    17    18 ar  
    43    17    45 1   
    44    18    19 ar  
    45    18    46 1   
    46    19    20 1   
    47    20    21 1   
@<TRIPOS>SUBSTRUCTURE
     1 QNO         1 TEMP              0 ****  ****    0 ROOT
