@<TRIPOS>MOLECULE
QNQ
   28    28     1     0     0
SMALL
bcc


@<TRIPOS>ATOM
      1 N           27.5200    64.7530    84.0610 n8         1 QNQ      -0.891800
      2 CA          27.3030    64.6310    82.6320 c3         1 QNQ       0.014500
      3 CB          27.2350    66.0080    81.9980 c3         1 QNQ       0.086700
      4 SG          25.8410    67.0340    82.6140 ss         1 QNQ      -0.417000
      5 C           28.4220    63.7770    81.9670 c          1 QNQ       0.937600
      6 O           28.5320    63.8870    80.7310 o          1 QNQ      -0.825800
      7 C1          24.3020    66.7070    80.4090 ca         1 QNQ       0.090100
      8 C2          23.2390    66.1970    79.6540 ca         1 QNQ       0.097100
      9 C3          22.3550    65.3210    80.2550 ca         1 QNQ      -0.129000
     10 C4          22.5150    64.9600    81.5880 ca         1 QNQ      -0.149000
     11 C5          23.5670    65.4450    82.3540 ca         1 QNQ      -0.027300
     12 C6          24.4740    66.3200    81.7390 ca         1 QNQ      -0.006100
     13 O2          23.0570    66.5460    78.3620 oh         1 QNQ      -0.508100
     14 H1          26.6590    65.0120    84.5250 hn         1 QNQ       0.333300
     15 H2          27.7970    63.8500    84.4220 hn         1 QNQ       0.333300
     16 H4          26.3610    64.1110    82.3850 h1         1 QNQ       0.008700
     17 H5          28.1300    66.5850    82.2410 h1         1 QNQ       0.079700
     18 H6          27.1550    65.9410    80.9160 h1         1 QNQ       0.079700
     19 H8          21.5270    64.9250    79.6790 ha         1 QNQ       0.135000
     20 H9          21.8020    64.2810    82.0370 ha         1 QNQ       0.124000
     21 H10         24.6190    64.4600    83.9610 hc         1 QNQ       0.044700
     22 H11         23.7440    65.8970    84.4580 hc         1 QNQ       0.044700
     23 H12         22.8660    64.4130    84.0940 hc         1 QNQ       0.044700
     24 H13         25.7150    67.9800    80.4270 ho         1 QNQ       0.458000
     25 H14         23.7350    67.1750    78.0860 ho         1 QNQ       0.439000
     26 OXT         29.0770    63.0300    82.7160 o          1 QNQ      -0.825800
     27 C51         23.7070    65.0350    83.7910 c3         1 QNQ      -0.040800
     28 O1          25.1230    67.5660    79.7770 oh         1 QNQ      -0.527100
@<TRIPOS>BOND
     1     1     2 1   
     2     1    14 1   
     3     1    15 1   
     4     2     3 1   
     5     2     5 1   
     6     2    16 1   
     7     3     4 1   
     8     3    17 1   
     9     3    18 1   
    10     4    12 1   
    11     5     6 1   
    12     5    26 1   
    13     7     8 ar  
    14     7    12 ar  
    15     7    28 1   
    16     8     9 ar  
    17     8    13 1   
    18     9    10 ar  
    19     9    19 1   
    20    10    11 ar  
    21    10    20 1   
    22    11    12 ar  
    23    11    27 1   
    24    13    25 1   
    25    21    27 1   
    26    22    27 1   
    27    23    27 1   
    28    24    28 1   
@<TRIPOS>SUBSTRUCTURE
     1 QNQ         1 TEMP              0 ****  ****    0 ROOT
