@<TRIPOS>MOLECULE
QNQ
   28    28     1     0     0
SMALL
No Charge or Current Charge


@<TRIPOS>ATOM
      1 N           27.4730    64.6800    84.0550 n8         1 QNQ      -0.891800
      2 CA          27.3740    64.6900    82.5440 c3         1 QNQ       0.014500
      3 CB          27.3220    66.1480    82.0150 c3         1 QNQ       0.086700
      4 SG          25.8380    67.0770    82.6560 ss         1 QNQ      -0.417000
      5 C           28.4500    63.8340    81.7430 c          1 QNQ       0.937600
      6 O           29.4170    64.3960    81.2360 o          1 QNQ      -0.825800
      7 C1          24.2940    66.6210    80.3950 ca         1 QNQ       0.090100
      8 C2          23.2400    66.0330    79.6670 ca         1 QNQ       0.097100
      9 C3          22.3490    65.1590    80.3060 ca         1 QNQ      -0.129000
     10 C4          22.5020    64.8790    81.6750 ca         1 QNQ      -0.149000
     11 C5          23.5520    65.4620    82.4150 ca         1 QNQ      -0.027300
     12 C6          24.4640    66.3280    81.7650 ca         1 QNQ      -0.006100
     13 O2          23.0830    66.3200    78.3410 oh         1 QNQ      -0.508100
     14 H1          26.7130    65.2550    84.4310 hn         1 QNQ       0.333300
     15 H2          27.2820    63.7330    84.4010 hn         1 QNQ       0.333300
     16 H4          26.4010    64.2380    82.3060 h1         1 QNQ       0.008700
     17 H5          28.2350    66.6760    82.3210 h1         1 QNQ       0.079700
     18 H6          27.2920    66.1380    80.9180 h1         1 QNQ       0.079700
     19 H8          21.5360    64.7060    79.7440 ha         1 QNQ       0.135000
     20 H9          21.7990    64.2060    82.1620 ha         1 QNQ       0.124000
     21 H10         24.5540    64.5110    84.0920 hc         1 QNQ       0.044700
     22 H11         23.7870    66.0580    84.4960 hc         1 QNQ       0.044700
     23 H12         22.8010    64.6120    84.2800 hc         1 QNQ       0.044700
     24 H13         25.7210    67.8720    80.4830 ho         1 QNQ       0.458000
     25 H14         23.8010    66.9480    78.1050 ho         1 QNQ       0.439000
     26 OXT         28.2730    62.6220    81.6460 o          1 QNQ      -0.825800
     27 C51         23.6810    65.1440    83.9010 c3         1 QNQ      -0.040800
     28 O1          25.1450    67.5010    79.7790 oh         1 QNQ      -0.527100
@<TRIPOS>BOND
     1     1     2 1   
     2     1    14 1   
     3     1    15 1   
     4     2     3 1   
     5     2     5 1   
     6     2    16 1   
     7     3     4 1   
     8     3    17 1   
     9     3    18 1   
    10     4    12 1   
    11     5     6 1   
    12     5    26 1   
    13     7     8 ar  
    14     7    12 ar  
    15     7    28 1   
    16     8     9 ar  
    17     8    13 1   
    18     9    10 ar  
    19     9    19 1   
    20    10    11 ar  
    21    10    20 1   
    22    11    12 ar  
    23    11    27 1   
    24    13    25 1   
    25    21    27 1   
    26    22    27 1   
    27    23    27 1   
    28    24    28 1   
@<TRIPOS>SUBSTRUCTURE
     1 QNQ         1 TEMP              0 ****  ****    0 ROOT
