@<TRIPOS>MOLECULE
QNR
   23    25     1     0     0
SMALL
abcg2


@<TRIPOS>ATOM
      1 C1         -16.2830   -13.1670    -0.1130 ca         1 QNR       0.392500
      2 C2         -17.1500   -14.2160     0.2190 ca         1 QNR      -0.175800
      3 C3         -16.4010   -15.1440     1.0110 cc         1 QNR      -0.204200
      4 C4         -15.1320   -14.6340     1.1290 cd         1 QNR      -0.191100
      5 C5         -18.4840   -14.1290    -0.2640 ca         1 QNR       0.066000
      6 C6         -18.8250   -12.9830    -1.0430 ca         1 QNR      -0.133000
      7 C          -17.8010   -11.9910    -1.3170 ca         1 QNR       0.618900
      8 C7         -20.1480   -12.8510    -1.5140 ca         1 QNR      -0.072000
      9 C8         -21.0970   -13.8130    -1.2460 ca         1 QNR      -0.135000
     10 C9         -20.7530   -14.9480    -0.4910 ca         1 QNR      -0.083000
     11 C10        -19.4740   -15.1010    -0.0090 ca         1 QNR      -0.116000
     12 N2         -15.0640   -13.4350     0.4460 na         1 QNR      -0.316400
     13 N1         -16.5670   -12.0840    -0.8620 nb         1 QNR      -0.763000
     14 H1         -16.7480   -16.0710     1.4390 ha         1 QNR       0.202000
     15 H2         -14.2670   -15.0230     1.6400 h4         1 QNR       0.215000
     16 H3         -17.3100   -10.3400    -2.3570 hn         1 QNR       0.466000
     17 H4         -18.8400   -10.9340    -2.7340 hn         1 QNR       0.466000
     18 H5         -20.4400   -11.9790    -2.0830 ha         1 QNR       0.106000
     19 H6         -22.1080   -13.6930    -1.6140 ha         1 QNR       0.114000
     20 H7         -21.5020   -15.7030    -0.2850 ha         1 QNR       0.113000
     21 H8         -19.2130   -15.9730     0.5790 ha         1 QNR       0.119000
     22 H9         -14.2480   -12.8500     0.3650 hn         1 QNR       0.357000
     23 N          -18.1140   -10.8610    -2.0400 nv         1 QNR      -1.044900
@<TRIPOS>BOND
     1     1     2 ar  
     2     1    12 1   
     3     1    13 ar  
     4     2     3 1   
     5     2     5 ar  
     6     3     4 2   
     7     3    14 1   
     8     4    12 1   
     9     4    15 1   
    10     5     6 ar  
    11     5    11 ar  
    12     6     7 ar  
    13     6     8 ar  
    14     7    13 ar  
    15     7    23 1   
    16     8     9 ar  
    17     8    18 1   
    18     9    10 ar  
    19     9    19 1   
    20    10    11 ar  
    21    10    20 1   
    22    11    21 1   
    23    12    22 1   
    24    16    23 1   
    25    17    23 1   
@<TRIPOS>SUBSTRUCTURE
     1 QNR         1 TEMP              0 ****  ****    0 ROOT
