@<TRIPOS>MOLECULE
QNR
   23    25     1     0     0
SMALL
No Charge or Current Charge


@<TRIPOS>ATOM
      1 C1         -16.2660   -13.1150    -0.1360 ca         1 QNR       0.392500
      2 C2         -17.1550   -14.1210     0.1710 ca         1 QNR      -0.175800
      3 C3         -16.4680   -15.1020     0.9620 cc         1 QNR      -0.204200
      4 C4         -15.1670   -14.6530     1.1110 cd         1 QNR      -0.191100
      5 C5         -18.4850   -14.0820    -0.2740 ca         1 QNR       0.066000
      6 C6         -18.8560   -12.9620    -1.0460 ca         1 QNR      -0.133000
      7 C          -17.8590   -11.9870    -1.2990 ca         1 QNR       0.618900
      8 C7         -20.1820   -12.8570    -1.5240 ca         1 QNR      -0.072000
      9 C8         -21.1150   -13.8680    -1.2300 ca         1 QNR      -0.135000
     10 C9         -20.7370   -14.9830    -0.4610 ca         1 QNR      -0.083000
     11 C10        -19.4210   -15.0920     0.0190 ca         1 QNR      -0.116000
     12 N2         -15.0410   -13.4160     0.4280 na         1 QNR      -0.316400
     13 N1         -16.5990   -12.0400    -0.8720 nb         1 QNR      -0.763000
     14 H1         -16.8690   -16.0270     1.3760 ha         1 QNR       0.202000
     15 H2         -14.3350   -15.1120     1.6440 h4         1 QNR       0.215000
     16 H3         -17.1690   -10.4130    -2.2860 hn         1 QNR       0.466000
     17 H4         -18.7690   -10.8770    -2.7200 hn         1 QNR       0.466000
     18 H5         -20.4970   -12.0010    -2.1160 ha         1 QNR       0.106000
     19 H6         -22.1360   -13.7850    -1.5980 ha         1 QNR       0.114000
     20 H7         -21.4640   -15.7610    -0.2370 ha         1 QNR       0.113000
     21 H8         -19.1350   -15.9560     0.6130 ha         1 QNR       0.119000
     22 H9         -14.2110   -12.8400     0.3540 hn         1 QNR       0.357000
     23 N          -18.0320   -10.8730    -2.0250 nv         1 QNR      -1.044900
@<TRIPOS>BOND
     1     1     2 ar  
     2     1    12 1   
     3     1    13 ar  
     4     2     3 1   
     5     2     5 ar  
     6     3     4 2   
     7     3    14 1   
     8     4    12 1   
     9     4    15 1   
    10     5     6 ar  
    11     5    11 ar  
    12     6     7 ar  
    13     6     8 ar  
    14     7    13 ar  
    15     7    23 1   
    16     8     9 ar  
    17     8    18 1   
    18     9    10 ar  
    19     9    19 1   
    20    10    11 ar  
    21    10    20 1   
    22    11    21 1   
    23    12    22 1   
    24    16    23 1   
    25    17    23 1   
@<TRIPOS>SUBSTRUCTURE
     1 QNR         1 TEMP              0 ****  ****    0 ROOT
