@<TRIPOS>MOLECULE
QNS
   58    61     1     0     0
SMALL
No Charge or Current Charge


@<TRIPOS>ATOM
      1 CAA          1.6390     5.1260     1.0020 c3         1 QNS       0.148900
      2 OAB          2.4260     4.1470     1.7020 os         1 QNS      -0.338100
      3 CAC          2.8480     2.9770     1.1030 ca         1 QNS       0.144100
      4 CAD          3.5980     2.0780     1.8710 ca         1 QNS      -0.166500
      5 CAE          4.0490     0.8680     1.3180 ca         1 QNS      -0.067500
      6 CAF          3.7700     0.5320    -0.0270 ca         1 QNS      -0.107300
      7 CAG          3.0030     1.4470    -0.7930 ca         1 QNS      -0.067500
      8 CAH          2.5500     2.6560    -0.2360 ca         1 QNS      -0.166500
      9 CAI          4.2530    -0.8400    -0.5950 c6         1 QNS      -0.005700
     10 CAJ          3.4530    -1.9720     0.1460 c3         1 QNS       0.106000
     11 NAK          1.9990    -1.7630     0.1000 ns         1 QNS      -0.503900
     12 CAL          1.2250    -1.3420     1.1620 c          1 QNS       0.626700
     13 OAM          1.6800    -1.2720     2.2940 o          1 QNS      -0.571100
     14 CAN         -0.1780    -0.9110     0.8010 ca         1 QNS      -0.174600
     15 CAO         -1.2520    -0.9910     1.7220 ca         1 QNS       0.188000
     16 ClA         -1.0770    -1.6810     3.3380 cl         1 QNS      -0.171000
     17 CAQ         -2.5390    -0.5610     1.3570 ca         1 QNS      -0.142000
     18 CAR         -2.7920    -0.0360     0.0740 ca         1 QNS       0.009000
     19 NAS         -4.0680     0.4180    -0.3590 ns         1 QNS      -0.137000
     20 CAT         -5.2990     0.5020     0.2790 c          1 QNS       0.549600
     21 OAU         -5.5020     0.1660     1.4410 o          1 QNS      -0.561100
     22 CAV         -6.3560     1.0510    -0.6100 cc         1 QNS       0.040500
     23 CAW         -7.6690     1.2570    -0.2770 cd         1 QNS      -0.089000
     24 CAX         -8.3000     1.7880    -1.4210 cd         1 QNS      -0.198000
     25 CAY         -7.3520     1.8860    -2.4040 cc         1 QNS       0.152900
     26 OAZ         -6.1420     1.4350    -1.9220 os         1 QNS      -0.245000
     27 CBA         -1.7300     0.0450    -0.8390 ca         1 QNS      -0.180000
     28 CBB         -0.4410    -0.3840    -0.4860 ca         1 QNS      -0.053000
     29 CBC          5.7890    -1.0140    -0.3300 c6         1 QNS      -0.106900
     30 CBD          6.3790    -2.2720    -1.0170 c6         1 QNS       0.152600
     31 OBE          6.1140    -2.2300    -2.4320 os         1 QNS      -0.445000
     32 CBF          4.7110    -2.2170    -2.7580 c6         1 QNS       0.152600
     33 CBG          4.0420    -0.9590    -2.1480 c6         1 QNS      -0.106900
     34 HAA          1.4120     5.9730     1.6610 h1         1 QNS       0.039033
     35 HAAA         2.1810     5.5100     0.1290 h1         1 QNS       0.039033
     36 HAAB         0.6880     4.6930     0.6640 h1         1 QNS       0.039033
     37 HAD          3.8230     2.3140     2.9080 ha         1 QNS       0.120500
     38 HAE          4.6060     0.1860     1.9540 ha         1 QNS       0.108000
     39 HAG          2.7350     1.2400    -1.8240 ha         1 QNS       0.108000
     40 HAH          1.9660     3.3260    -0.8590 ha         1 QNS       0.120500
     41 HAJ          3.6770    -2.9520    -0.2920 h1         1 QNS       0.059700
     42 HAJA         3.7810    -2.0100     1.1930 h1         1 QNS       0.059700
     43 HNAK         1.5360    -1.8230    -0.7970 hn         1 QNS       0.312500
     44 HAQ         -3.3310    -0.6530     2.0920 ha         1 QNS       0.166000
     45 HNAS        -4.0830     0.7430    -1.3170 hn         1 QNS       0.166000
     46 HAW         -8.1280     1.0480     0.6860 ha         1 QNS       0.162000
     47 HAX         -9.3430     2.0710    -1.5140 ha         1 QNS       0.151000
     48 HAY         -7.3950     2.2360    -3.4270 h4         1 QNS       0.057100
     49 HBA         -1.8990     0.4520    -1.8340 ha         1 QNS       0.116000
     50 HBB          0.3550    -0.2750    -1.2200 ha         1 QNS       0.122000
     51 HBC          6.3260    -0.1280    -0.6950 hc         1 QNS       0.053200
     52 HBCA         6.0010    -1.0760     0.7450 hc         1 QNS       0.053200
     53 HBD          7.4670    -2.3050    -0.8610 h1         1 QNS       0.043450
     54 HBDA         5.9490    -3.1890    -0.5900 h1         1 QNS       0.043450
     55 HBF          4.6030    -2.2010    -3.8520 h1         1 QNS       0.043450
     56 HBFA         4.2390    -3.1370    -2.3880 h1         1 QNS       0.043450
     57 HBG          2.9740    -0.9690    -2.3990 hc         1 QNS       0.053200
     58 HBGA         4.4710    -0.0780    -2.6460 hc         1 QNS       0.053200
@<TRIPOS>BOND
     1     1     2 1   
     2     1    34 1   
     3     1    35 1   
     4     1    36 1   
     5     2     3 1   
     6     3     4 ar  
     7     3     8 ar  
     8     4     5 ar  
     9     4    37 1   
    10     5     6 ar  
    11     5    38 1   
    12     6     7 ar  
    13     6     9 1   
    14     7     8 ar  
    15     7    39 1   
    16     8    40 1   
    17     9    10 1   
    18     9    29 1   
    19     9    33 1   
    20    10    11 1   
    21    10    41 1   
    22    10    42 1   
    23    11    12 1   
    24    11    43 1   
    25    12    13 2   
    26    12    14 1   
    27    14    15 ar  
    28    14    28 ar  
    29    15    16 1   
    30    15    17 ar  
    31    17    18 ar  
    32    17    44 1   
    33    18    19 1   
    34    18    27 ar  
    35    19    20 1   
    36    19    45 1   
    37    20    21 2   
    38    20    22 1   
    39    22    23 2   
    40    22    26 1   
    41    23    24 1   
    42    23    46 1   
    43    24    25 2   
    44    24    47 1   
    45    25    26 1   
    46    25    48 1   
    47    27    28 ar  
    48    27    49 1   
    49    28    50 1   
    50    29    30 1   
    51    29    51 1   
    52    29    52 1   
    53    30    31 1   
    54    30    53 1   
    55    30    54 1   
    56    31    32 1   
    57    32    33 1   
    58    32    55 1   
    59    32    56 1   
    60    33    57 1   
    61    33    58 1   
@<TRIPOS>SUBSTRUCTURE
     1 QNS         1 TEMP              0 ****  ****    0 ROOT
