@<TRIPOS>MOLECULE
QNS
   58    61     1     0     0
SMALL
bcc


@<TRIPOS>ATOM
      1 CAA          1.9620     5.1520     0.8910 c3         1 QNS       0.125700
      2 OAB          2.7750     4.2470     1.6080 os         1 QNS      -0.314900
      3 CAC          3.0820     3.0670     1.0300 ca         1 QNS       0.144100
      4 CAD          3.8920     2.2030     1.7700 ca         1 QNS      -0.184500
      5 CAE          4.2500     0.9730     1.2570 ca         1 QNS      -0.085500
      6 CAF          3.8370     0.5510    -0.0100 ca         1 QNS      -0.107300
      7 CAG          3.0350     1.4260    -0.7300 ca         1 QNS      -0.085500
      8 CAH          2.6540     2.6680    -0.2300 ca         1 QNS      -0.184500
      9 CAI          4.2050    -0.8350    -0.5210 c6         1 QNS      -0.005700
     10 CAJ          3.3460    -1.8650     0.2500 c3         1 QNS       0.106000
     11 NAK          1.9310    -1.6130     0.1400 ns         1 QNS      -0.570900
     12 CAL          1.1870    -1.0680     1.1190 c          1 QNS       0.693700
     13 OAM          1.5920    -0.8340     2.2440 o          1 QNS      -0.571100
     14 CAN         -0.2160    -0.7430     0.7100 ca         1 QNS      -0.174600
     15 CAO         -1.3260    -1.1390     1.4460 ca         1 QNS       0.096400
     16 CLA         -1.1400    -2.1680     2.8260 cl         1 QNS      -0.079400
     17 CAQ         -2.6180    -0.7810     1.0970 ca         1 QNS      -0.160000
     18 CAR         -2.8240     0.0260    -0.0230 ca         1 QNS       0.101600
     19 NAS         -4.0740     0.4550    -0.4580 ns         1 QNS      -0.463100
     20 CAT         -5.2940     0.2280     0.0980 c          1 QNS       0.616600
     21 OAU         -5.4870    -0.4240     1.1100 o          1 QNS      -0.561100
     22 CAV         -6.4240     0.8340    -0.6120 cc         1 QNS       0.150200
     23 CAW         -7.7530     0.7930    -0.3280 cd         1 QNS      -0.172300
     24 CAX         -8.3960     1.5490    -1.3450 cd         1 QNS      -0.281300
     25 CAY         -7.4080     1.9900    -2.1650 cc         1 QNS       0.262600
     26 OAZ         -6.2120     1.5630    -1.7300 os         1 QNS      -0.333800
     27 CBA         -1.7210     0.4370    -0.7730 ca         1 QNS      -0.198000
     28 CBB         -0.4470     0.0500    -0.4120 ca         1 QNS      -0.071000
     29 CBC          5.6960    -1.1260    -0.2600 c6         1 QNS      -0.106900
     30 CBD          6.1880    -2.3870    -0.9550 c6         1 QNS       0.129400
     31 OBE          5.9460    -2.3560    -2.3430 os         1 QNS      -0.398600
     32 CBF          4.5690    -2.2370    -2.6190 c6         1 QNS       0.129400
     33 CBG          3.9800    -0.9620    -2.0370 c6         1 QNS      -0.106900
     34 HAA          1.8420     6.0290     1.5220 h1         1 QNS       0.039033
     35 HAAA         2.4240     5.4570    -0.0510 h1         1 QNS       0.039033
     36 HAAB         0.9740     4.7360     0.6780 h1         1 QNS       0.039033
     37 HAD          4.2320     2.5010     2.7540 ha         1 QNS       0.138500
     38 HAE          4.8690     0.3320     1.8720 ha         1 QNS       0.126000
     39 HAG          2.6800     1.1630    -1.7170 ha         1 QNS       0.126000
     40 HAH          2.0240     3.3000    -0.8410 ha         1 QNS       0.138500
     41 HAJ          3.5420    -2.8790    -0.1020 h1         1 QNS       0.059700
     42 HAJA         3.6170    -1.8460     1.3040 h1         1 QNS       0.059700
     43 HNAK         1.4730    -1.8550    -0.7240 hn         1 QNS       0.312500
     44 HAQ         -3.4430    -1.1310     1.6940 ha         1 QNS       0.184000
     45 HNAS        -4.0510     1.0170    -1.2960 hn         1 QNS       0.332500
     46 HAW         -8.2160     0.2870     0.5020 ha         1 QNS       0.180000
     47 HAX         -9.4500     1.7400    -1.4530 ha         1 QNS       0.169000
     48 HAY         -7.4110     2.5910    -3.0590 h4         1 QNS       0.057100
     49 HBA         -1.8610     1.0680    -1.6430 ha         1 QNS       0.134000
     50 HBB          0.3920     0.3940    -1.0030 ha         1 QNS       0.140000
     51 HBC          6.2860    -0.2740    -0.6100 hc         1 QNS       0.053200
     52 HBCA         5.8940    -1.2290     0.8100 hc         1 QNS       0.053200
     53 HBD          7.2660    -2.4850    -0.8190 h1         1 QNS       0.043450
     54 HBDA         5.7270    -3.2800    -0.5080 h1         1 QNS       0.043450
     55 HBF          4.4590    -2.2280    -3.7040 h1         1 QNS       0.043450
     56 HBFA         4.0280    -3.1210    -2.2500 h1         1 QNS       0.043450
     57 HBG          2.9170    -0.9270    -2.2940 hc         1 QNS       0.053200
     58 HBGA         4.4420    -0.1060    -2.5370 hc         1 QNS       0.053200
@<TRIPOS>BOND
     1     1     2 1   
     2     1    34 1   
     3     1    35 1   
     4     1    36 1   
     5     2     3 1   
     6     3     4 ar  
     7     3     8 ar  
     8     4     5 ar  
     9     4    37 1   
    10     5     6 ar  
    11     5    38 1   
    12     6     7 ar  
    13     6     9 1   
    14     7     8 ar  
    15     7    39 1   
    16     8    40 1   
    17     9    10 1   
    18     9    29 1   
    19     9    33 1   
    20    10    11 1   
    21    10    41 1   
    22    10    42 1   
    23    11    12 1   
    24    11    43 1   
    25    12    13 2   
    26    12    14 1   
    27    14    15 ar  
    28    14    28 ar  
    29    15    16 1   
    30    15    17 ar  
    31    17    18 ar  
    32    17    44 1   
    33    18    19 1   
    34    18    27 ar  
    35    19    20 1   
    36    19    45 1   
    37    20    21 2   
    38    20    22 1   
    39    22    23 2   
    40    22    26 1   
    41    23    24 1   
    42    23    46 1   
    43    24    25 2   
    44    24    47 1   
    45    25    26 1   
    46    25    48 1   
    47    27    28 ar  
    48    27    49 1   
    49    28    50 1   
    50    29    30 1   
    51    29    51 1   
    52    29    52 1   
    53    30    31 1   
    54    30    53 1   
    55    30    54 1   
    56    31    32 1   
    57    32    33 1   
    58    32    55 1   
    59    32    56 1   
    60    33    57 1   
    61    33    58 1   
@<TRIPOS>SUBSTRUCTURE
     1 QNS         1 TEMP              0 ****  ****    0 ROOT
