@<TRIPOS>MOLECULE
QNT
   31    31     1     0     0
SMALL
bcc


@<TRIPOS>ATOM
      1 O3          22.6520    66.4110    78.1280 oh         1 QNT      -0.504100
      2 C4          23.2960    66.1830    80.4200 ca         1 QNT       0.025100
      3 C5          24.1840    66.4390    81.4650 ca         1 QNT      -0.070300
      4 O4          22.1560    65.4600    80.5700 oh         1 QNT      -0.540100
      5 C6          25.3200    67.2070    81.1770 ca         1 QNT       0.052900
      6 N           27.4000    64.8800    83.8340 n8         1 QNT      -0.884800
      7 C           28.6220    63.9950    81.8590 c          1 QNT       0.935600
      8 O           28.9470    64.1490    80.6650 o          1 QNT      -0.826800
      9 C1          25.5210    67.7070    79.8940 ca         1 QNT      -0.083000
     10 C2          24.6380    67.4490    78.8550 ca         1 QNT      -0.098300
     11 C3          23.5160    66.6730    79.1310 ca         1 QNT       0.124100
     12 CA          27.5280    64.9630    82.3910 c3         1 QNT       0.015500
     13 CB          27.8450    66.3930    81.9860 c3         1 QNT       0.081700
     14 SG          26.5350    67.5970    82.4130 ss         1 QNT      -0.402000
     15 C51         23.8780    65.8790    82.8230 c3         1 QNT      -0.060800
     16 C21         24.8720    67.9820    77.4720 c3         1 QNT      -0.026800
     17 H1          21.9400    65.8410    78.4430 ho         1 QNT       0.434000
     18 H2          22.1720    64.9290    81.3740 ho         1 QNT       0.434000
     19 H3          26.5200    65.2840    84.1240 hn         1 QNT       0.328300
     20 H4          27.3840    63.9070    84.1060 hn         1 QNT       0.328300
     21 H7          26.3960    68.3130    79.6950 ha         1 QNT       0.145000
     22 H8          26.6020    64.6730    81.8640 h1         1 QNT       0.003700
     23 H9          28.0320    66.4690    80.9170 h1         1 QNT       0.079200
     24 H10         28.7350    66.7440    82.5160 h1         1 QNT       0.079200
     25 H11         23.9830    64.7910    82.8470 hc         1 QNT       0.049367
     26 H12         24.5520    66.2840    83.5730 hc         1 QNT       0.049367
     27 H13         22.8620    66.1190    83.1420 hc         1 QNT       0.049367
     28 H14         24.0480    68.6140    77.1370 hc         1 QNT       0.038033
     29 H15         25.7820    68.5780    77.4400 hc         1 QNT       0.038033
     30 H16         24.9760    67.1790    76.7410 hc         1 QNT       0.038033
     31 OXT         29.0500    63.1330    82.6490 o          1 QNT      -0.826800
@<TRIPOS>BOND
     1     1    11 1   
     2     1    17 1   
     3     2     3 ar  
     4     2     4 1   
     5     2    11 ar  
     6     3     5 ar  
     7     3    15 1   
     8     4    18 1   
     9     5     9 ar  
    10     5    14 1   
    11     6    12 1   
    12     6    19 1   
    13     6    20 1   
    14     7     8 1   
    15     7    12 1   
    16     7    31 1   
    17     9    10 ar  
    18     9    21 1   
    19    10    11 ar  
    20    10    16 1   
    21    12    13 1   
    22    12    22 1   
    23    13    14 1   
    24    13    23 1   
    25    13    24 1   
    26    15    25 1   
    27    15    26 1   
    28    15    27 1   
    29    16    28 1   
    30    16    29 1   
    31    16    30 1   
@<TRIPOS>SUBSTRUCTURE
     1 QNT         1 TEMP              0 ****  ****    0 ROOT
