@<TRIPOS>MOLECULE
QNT
   31    31     1     0     0
SMALL
No Charge or Current Charge


@<TRIPOS>ATOM
      1 O3          22.5290    66.2290    78.2690 oh         1 QNT      -0.543100
      2 C4          22.9890    66.2940    80.6060 ca         1 QNT       0.025100
      3 C5          23.8690    66.5640    81.6840 ca         1 QNT      -0.070300
      4 O4          21.7130    65.8260    80.8200 oh         1 QNT      -0.579100
      5 C6          25.1740    67.0350    81.3990 ca         1 QNT      -0.074000
      6 N           27.4280    64.4040    83.2400 n8         1 QNT      -0.995200
      7 C           29.1450    64.5510    81.2500 c          1 QNT       0.725000
      8 O           30.2010    65.1620    81.3700 o          1 QNT      -0.721500
      9 C1          25.5760    67.2480    80.0660 ca         1 QNT      -0.065000
     10 C2          24.7040    66.9820    78.9960 ca         1 QNT      -0.098300
     11 C3          23.4100    66.5020    79.2760 ca         1 QNT       0.124100
     12 CA          27.8440    65.1070    81.9650 c3         1 QNT       0.015500
     13 CB          27.9430    66.6450    82.1710 c3         1 QNT       0.129600
     14 SG          26.3290    67.3870    82.7320 ss         1 QNT      -0.323000
     15 C51         23.4460    66.3520    83.1440 c3         1 QNT      -0.060800
     16 C21         25.1620    67.2180    77.5600 c3         1 QNT      -0.026800
     17 H1          21.7130    65.9160    78.7220 ho         1 QNT       0.473000
     18 H2          21.5710    65.7250    81.7860 ho         1 QNT       0.473000
     19 H3          26.5500    64.8240    83.5660 hn         1 QNT       0.383500
     20 H4          27.1750    63.4330    83.0200 hn         1 QNT       0.383500
     21 H7          26.5700    67.6340    79.8570 ha         1 QNT       0.127000
     22 H8          27.0230    64.9380    81.2550 h1         1 QNT       0.003700
     23 H9          28.2550    67.1250    81.2340 h1         1 QNT       0.079200
     24 H10         28.7100    66.8630    82.9250 h1         1 QNT       0.079200
     25 H11         24.0710    65.5880    83.6220 hc         1 QNT       0.049367
     26 H12         23.5560    67.2790    83.7200 hc         1 QNT       0.049367
     27 H13         22.4060    66.0320    83.2600 hc         1 QNT       0.049367
     28 H14         24.5260    67.9590    77.0610 hc         1 QNT       0.038033
     29 H15         26.1940    67.5880    77.5150 hc         1 QNT       0.038033
     30 H16         25.1200    66.2910    76.9760 hc         1 QNT       0.038033
     31 OXT         29.0410    63.5270    80.5870 o          1 QNT      -0.721500
@<TRIPOS>BOND
     1     1    11 1   
     2     1    17 1   
     3     2     3 ar  
     4     2     4 1   
     5     2    11 ar  
     6     3     5 ar  
     7     3    15 1   
     8     4    18 1   
     9     5     9 ar  
    10     5    14 1   
    11     6    12 1   
    12     6    19 1   
    13     6    20 1   
    14     7     8 1   
    15     7    12 1   
    16     7    31 1   
    17     9    10 ar  
    18     9    21 1   
    19    10    11 ar  
    20    10    16 1   
    21    12    13 1   
    22    12    22 1   
    23    13    14 1   
    24    13    23 1   
    25    13    24 1   
    26    15    25 1   
    27    15    26 1   
    28    15    27 1   
    29    16    28 1   
    30    16    29 1   
    31    16    30 1   
@<TRIPOS>SUBSTRUCTURE
     1 QNT         1 TEMP              0 ****  ****    0 ROOT
