@<TRIPOS>MOLECULE
QNU
   40    43     1     0     0
SMALL
No Charge or Current Charge


@<TRIPOS>ATOM
      1 N1         -20.1660     5.1480    26.4120 ns         1 QNU      -0.167000
      2 C4         -23.1920     6.8330    30.3050 c6         1 QNU       0.195100
      3 C5         -22.7510     6.5280    27.9120 c6         1 QNU       0.163800
      4 C6         -21.9450     5.2260    28.1290 c6         1 QNU      -0.134400
      5 C7         -20.4690     5.4390    27.7340 c          1 QNU       0.598100
      6 C8         -18.9240     5.2410    25.7250 ca         1 QNU      -0.078000
      7 C10        -16.5200     5.1730    24.3660 ca         1 QNU       0.359900
      8 C13        -16.5330     8.7360    25.4540 ca         1 QNU      -0.106000
      9 C15        -18.5770     7.6560    26.2220 ca         1 QNU      -0.088000
     10 C17        -22.0860     4.6450    29.5450 ca         1 QNU      -0.062300
     11 O          -19.6160     5.7670    28.5510 o          1 QNU      -0.575100
     12 N          -22.6040     7.4230    29.0790 n7         1 QNU      -0.840400
     13 C3         -22.6590     5.4200    30.5810 ca         1 QNU      -0.089300
     14 C2         -22.7700     4.8770    31.8770 ca         1 QNU      -0.097000
     15 C1         -22.3100     3.5750    32.1420 ca         1 QNU      -0.092000
     16 C18        -21.6320     3.3400    29.8180 ca         1 QNU      -0.093000
     17 C          -21.7430     2.8090    31.1130 ca         1 QNU       0.125000
     18 Cl         -21.1710     1.1790    31.4440 cl         1 QNU      -0.211000
     19 C16        -18.1550     6.4300    25.6590 ca         1 QNU      -0.001000
     20 C14        -17.7660     8.8000    26.1220 ca         1 QNU      -0.091000
     21 C12        -16.1120     7.5290    24.8730 ca         1 QNU      -0.084000
     22 C11        -16.9230     6.3810    24.9680 ca         1 QNU      -0.091000
     23 N2         -17.2640     4.0450    24.4020 nb         1 QNU      -0.653000
     24 C9         -18.4400     4.0910    25.0650 ca         1 QNU       0.310900
     25 H1         -20.9380     4.8040    25.8550 hn         1 QNU       0.156000
     26 H3         -24.2860     6.7820    30.2020 h1         1 QNU       0.064700
     27 H4         -22.4130     7.0370    26.9960 h1         1 QNU       0.060700
     28 H5         -23.8160     6.2830    27.7740 h1         1 QNU       0.060700
     29 H6         -22.3650     4.5270    27.3940 hc         1 QNU       0.065700
     30 H7         -15.5760     5.1080    23.8250 h4         1 QNU       0.022100
     31 H8         -15.9080     9.6240    25.3790 ha         1 QNU       0.118000
     32 H9         -19.5330     7.7440    26.7280 ha         1 QNU       0.120000
     33 H10        -21.6000     7.5630    29.2500 hn         1 QNU       0.432000
     34 H12        -23.2150     5.4630    32.6790 ha         1 QNU       0.120000
     35 H13        -22.3960     3.1600    33.1430 ha         1 QNU       0.132000
     36 H14        -21.1900     2.7370    29.0290 ha         1 QNU       0.125000
     37 H15        -18.0970     9.7390    26.5610 ha         1 QNU       0.117000
     38 H16        -15.1610     7.4890    24.3460 ha         1 QNU       0.118000
     39 H17        -19.0120     3.1640    25.0850 h4         1 QNU       0.021100
     40 H2         -22.9750     7.4830    31.1670 h1         1 QNU       0.064700
@<TRIPOS>BOND
     1     1     5 1   
     2     1     6 1   
     3     1    25 1   
     4     2    12 1   
     5     2    13 1   
     6     2    26 1   
     7     2    40 1   
     8     3     4 1   
     9     3    12 1   
    10     3    27 1   
    11     3    28 1   
    12     4     5 1   
    13     4    10 1   
    14     4    29 1   
    15     5    11 2   
    16     6    19 ar  
    17     6    24 ar  
    18     7    22 ar  
    19     7    23 ar  
    20     7    30 1   
    21     8    20 ar  
    22     8    21 ar  
    23     8    31 1   
    24     9    19 ar  
    25     9    20 ar  
    26     9    32 1   
    27    10    13 ar  
    28    10    16 ar  
    29    12    33 1   
    30    13    14 ar  
    31    14    15 ar  
    32    14    34 1   
    33    15    17 ar  
    34    15    35 1   
    35    16    17 ar  
    36    16    36 1   
    37    17    18 1   
    38    19    22 ar  
    39    20    37 1   
    40    21    22 ar  
    41    21    38 1   
    42    23    24 ar  
    43    24    39 1   
@<TRIPOS>SUBSTRUCTURE
     1 QNU         1 TEMP              0 ****  ****    0 ROOT
