@<TRIPOS>MOLECULE
QNU
   40    43     1     0     0
SMALL
abcg2


@<TRIPOS>ATOM
      1 N1         -20.1420     5.0790    26.4930 ns         1 QNU      -0.167000
      2 C4         -22.7390     6.8740    30.4890 c6         1 QNU       0.195100
      3 C5         -22.5940     6.7490    28.0900 c6         1 QNU       0.163800
      4 C6         -21.9580     5.3370    28.0860 c6         1 QNU      -0.134400
      5 C7         -20.4790     5.4730    27.7480 c          1 QNU       0.598100
      6 C8         -18.8280     5.1650    25.9620 ca         1 QNU      -0.078000
      7 C10        -16.3160     5.1410    24.8870 ca         1 QNU       0.359900
      8 C13        -16.8800     8.8110    25.0820 ca         1 QNU      -0.106000
      9 C15        -18.8520     7.6710    25.9120 ca         1 QNU      -0.088000
     10 C17        -22.1430     4.6530    29.4220 ca         1 QNU      -0.062300
     11 O          -19.6690     5.9550    28.5340 o          1 QNU      -0.575100
     12 N          -22.2580     7.5250    29.2740 n7         1 QNU      -0.840400
     13 C3         -22.4880     5.3810    30.5610 ca         1 QNU      -0.089300
     14 C2         -22.6410     4.7080    31.7750 ca         1 QNU      -0.097000
     15 C1         -22.4490     3.3380    31.8730 ca         1 QNU      -0.092000
     16 C18        -21.9490     3.2730    29.5100 ca         1 QNU      -0.093000
     17 C          -22.1030     2.6340    30.7270 ca         1 QNU       0.125000
     18 CL         -21.8570     0.8990    30.8250 cl         1 QNU      -0.211000
     19 C16        -18.2270     6.4230    25.6920 ca         1 QNU      -0.001000
     20 C14        -18.1890     8.8340    25.6130 ca         1 QNU      -0.091000
     21 C12        -16.2540     7.6140    24.8490 ca         1 QNU      -0.084000
     22 C11        -16.9140     6.3980    25.1420 ca         1 QNU      -0.091000
     23 N2         -16.9010     3.9890    25.1270 nb         1 QNU      -0.653000
     24 C9         -18.1450     4.0120    25.6670 ca         1 QNU       0.310900
     25 H1         -20.8320     4.5850    25.9480 hn         1 QNU       0.156000
     26 H3         -23.8200     7.0450    30.5660 h1         1 QNU       0.064700
     27 H4         -22.2870     7.2940    27.1960 h1         1 QNU       0.060700
     28 H5         -23.6800     6.6340    28.0480 h1         1 QNU       0.060700
     29 H6         -22.4450     4.7410    27.3120 hc         1 QNU       0.065700
     30 H7         -15.3160     5.1140    24.4640 h4         1 QNU       0.022100
     31 H8         -16.3780     9.7430    24.8570 ha         1 QNU       0.118000
     32 H9         -19.8550     7.7050    26.3140 ha         1 QNU       0.120000
     33 H10        -21.2480     7.6170    29.3250 hn         1 QNU       0.432000
     34 H12        -22.9110     5.2690    32.6630 ha         1 QNU       0.120000
     35 H13        -22.5630     2.8270    32.8190 ha         1 QNU       0.132000
     36 H14        -21.6800     2.7070    28.6270 ha         1 QNU       0.125000
     37 H15        -18.6750     9.7870    25.7820 ha         1 QNU       0.117000
     38 H16        -15.2540     7.5800    24.4350 ha         1 QNU       0.118000
     39 H17        -18.6060     3.0510    25.8660 h4         1 QNU       0.021100
     40 H2         -22.2850     7.3640    31.3510 h1         1 QNU       0.064700
@<TRIPOS>BOND
     1     1     5 1   
     2     1     6 1   
     3     1    25 1   
     4     2    12 1   
     5     2    13 1   
     6     2    26 1   
     7     2    40 1   
     8     3     4 1   
     9     3    12 1   
    10     3    27 1   
    11     3    28 1   
    12     4     5 1   
    13     4    10 1   
    14     4    29 1   
    15     5    11 2   
    16     6    19 ar  
    17     6    24 ar  
    18     7    22 ar  
    19     7    23 ar  
    20     7    30 1   
    21     8    20 ar  
    22     8    21 ar  
    23     8    31 1   
    24     9    19 ar  
    25     9    20 ar  
    26     9    32 1   
    27    10    13 ar  
    28    10    16 ar  
    29    12    33 1   
    30    13    14 ar  
    31    14    15 ar  
    32    14    34 1   
    33    15    17 ar  
    34    15    35 1   
    35    16    17 ar  
    36    16    36 1   
    37    17    18 1   
    38    19    22 ar  
    39    20    37 1   
    40    21    22 ar  
    41    21    38 1   
    42    23    24 ar  
    43    24    39 1   
@<TRIPOS>SUBSTRUCTURE
     1 QNU         1 TEMP              0 ****  ****    0 ROOT
