@<TRIPOS>MOLECULE
QNV
   42    45     1     0     0
SMALL
No Charge or Current Charge


@<TRIPOS>ATOM
      1 C02        -44.2080   -29.2290     2.8360 c          1 QNV       0.721000
      2 C03        -44.6280   -29.1510     1.3400 c5         1 QNV      -0.204700
      3 C04        -43.4370   -29.6820     0.4420 c5         1 QNV      -0.005100
      4 C05        -43.8740   -31.1000     0.1640 ca         1 QNV      -0.087300
      5 C06        -43.0850   -32.1430    -0.3520 ca         1 QNV       0.127100
      6 C08        -43.6660   -33.4080    -0.5520 ca         1 QNV      -0.211000
      7 C09        -45.0250   -33.6190    -0.2420 ca         1 QNV      -0.094000
      8 C10        -45.8040   -32.5640     0.2700 ca         1 QNV      -0.118000
      9 C11        -45.2060   -31.3080     0.4710 ca         1 QNV      -0.045300
     10 C12        -45.8830   -30.0630     0.9820 c5         1 QNV       0.163000
     11 C15        -48.3670   -29.4950     3.8370 ca         1 QNV      -0.125600
     12 C16        -49.4160   -28.6080     4.1800 ca         1 QNV      -0.058000
     13 C17        -50.1070   -28.7480     5.3930 ca         1 QNV       0.053100
     14 C18        -49.7440   -29.7660     6.2980 ca         1 QNV      -0.081000
     15 C20        -51.4520   -28.9980     7.9000 c          1 QNV       0.539000
     16 C21        -52.1140   -28.3120     6.6860 c6         1 QNV       0.079600
     17 C24        -48.7020   -30.6480     5.9810 ca         1 QNV      -0.138000
     18 C25        -48.0200   -30.5200     4.7570 ca         1 QNV      -0.062000
     19 N13        -46.6710   -30.2350     2.2060 ns         1 QNV      -0.472900
     20 N19        -50.4130   -29.8270     7.5400 ns         1 QNV      -0.137000
     21 O01        -44.1800   -28.1910     3.4820 o          1 QNV      -0.728000
     22 O07        -41.7720   -31.9400    -0.6610 oh         1 QNV      -0.539100
     23 O22        -51.1270   -27.8690     5.7110 os         1 QNV      -0.335100
     24 O23        -51.7680   -28.7820     9.0660 o          1 QNV      -0.557000
     25 O26        -47.9430   -28.4000     1.7460 o          1 QNV      -0.659100
     26 O27        -43.8960   -30.3010     3.3340 o          1 QNV      -0.728000
     27 H031       -44.8460   -28.1020     1.1140 hc         1 QNV       0.053700
     28 H042       -43.3540   -29.1100    -0.4890 hc         1 QNV       0.054200
     29 H041       -42.4650   -29.6220     0.9470 hc         1 QNV       0.054200
     30 H081       -43.0740   -34.2290    -0.9500 ha         1 QNV       0.093000
     31 H091       -45.4750   -34.5970    -0.4010 ha         1 QNV       0.095000
     32 H101       -46.8550   -32.7180     0.5030 ha         1 QNV       0.118000
     33 H121       -46.4660   -29.6240     0.1610 h1         1 QNV       0.061700
     34 H161       -49.7060   -27.8090     3.5010 ha         1 QNV       0.151000
     35 H211       -52.7070   -27.4570     7.0360 h1         1 QNV       0.077700
     36 H212       -52.7780   -29.0490     6.2170 h1         1 QNV       0.077700
     37 H241       -48.4130   -31.4290     6.6820 ha         1 QNV       0.120000
     38 H251       -47.2160   -31.2220     4.5490 ha         1 QNV       0.158000
     39 H131       -46.4700   -30.9540     2.8870 hn         1 QNV       0.379500
     40 H191       -49.9660   -30.3560     8.2780 hn         1 QNV       0.162000
     41 H071       -41.4050   -32.7830    -1.0020 ho         1 QNV       0.444000
     42 C14        -47.6540   -29.3140     2.5090 c          1 QNV       0.602700
@<TRIPOS>BOND
     1     1     2 1   
     2     1    21 1   
     3     1    26 1   
     4     2     3 1   
     5     2    10 1   
     6     2    27 1   
     7     3     4 1   
     8     3    28 1   
     9     3    29 1   
    10     4     5 ar  
    11     4     9 ar  
    12     5     6 ar  
    13     5    22 1   
    14     6     7 ar  
    15     6    30 1   
    16     7     8 ar  
    17     7    31 1   
    18     8     9 ar  
    19     8    32 1   
    20     9    10 1   
    21    10    19 1   
    22    10    33 1   
    23    11    12 ar  
    24    11    18 ar  
    25    11    42 1   
    26    12    13 ar  
    27    12    34 1   
    28    13    14 ar  
    29    13    23 1   
    30    14    17 ar  
    31    14    20 1   
    32    15    16 1   
    33    15    20 1   
    34    15    24 2   
    35    16    23 1   
    36    16    35 1   
    37    16    36 1   
    38    17    18 ar  
    39    17    37 1   
    40    18    38 1   
    41    19    39 1   
    42    19    42 1   
    43    20    40 1   
    44    22    41 1   
    45    25    42 2   
@<TRIPOS>SUBSTRUCTURE
     1 QNV         1 TEMP              0 ****  ****    0 ROOT
