@<TRIPOS>MOLECULE
QNV
   42    45     1     0     0
SMALL
abcg2


@<TRIPOS>ATOM
      1 C02        -43.3340   -29.6630     3.0030 c          1 QNV       0.721000
      2 C03        -43.9430   -29.2540     1.6350 c5         1 QNV      -0.204700
      3 C04        -43.1570   -29.9480     0.4880 c5         1 QNV      -0.005100
      4 C05        -43.9960   -31.1590     0.1780 ca         1 QNV      -0.087300
      5 C06        -43.6520   -32.3070    -0.5270 ca         1 QNV       0.127100
      6 C08        -44.6000   -33.3190    -0.6920 ca         1 QNV      -0.211000
      7 C09        -45.8790   -33.1740    -0.1590 ca         1 QNV      -0.094000
      8 C10        -46.2350   -32.0220     0.5410 ca         1 QNV      -0.118000
      9 C11        -45.2790   -31.0290     0.6970 ca         1 QNV      -0.045300
     10 C12        -45.4130   -29.6800     1.3750 c5         1 QNV       0.163000
     11 C15        -48.2270   -29.3080     3.8900 ca         1 QNV      -0.125600
     12 C16        -49.6170   -29.1830     3.8930 ca         1 QNV      -0.058000
     13 C17        -50.3180   -29.1890     5.0840 ca         1 QNV       0.053100
     14 C18        -49.6410   -29.3140     6.3010 ca         1 QNV      -0.081000
     15 C20        -51.7350   -29.4120     7.5110 c          1 QNV       0.539000
     16 C21        -52.3790   -29.6250     6.1530 c6         1 QNV       0.079600
     17 C24        -48.2560   -29.4390     6.3050 ca         1 QNV      -0.138000
     18 C25        -47.5540   -29.4340     5.1080 ca         1 QNV      -0.062000
     19 N13        -46.2470   -29.6690     2.5550 ns         1 QNV      -0.472900
     20 N19        -50.3870   -29.2710     7.4830 ns         1 QNV      -0.137000
     21 O01        -42.2000   -29.1880     3.2420 o          1 QNV      -0.728000
     22 O07        -42.3820   -32.4000    -1.0270 oh         1 QNV      -0.539100
     23 O22        -51.6730   -29.0000     5.0770 os         1 QNV      -0.335100
     24 O23        -52.3890   -29.4170     8.5440 o          1 QNV      -0.557000
     25 O26        -48.1320   -28.9280     1.5390 o          1 QNV      -0.659100
     26 O27        -43.9850   -30.4320     3.7660 o          1 QNV      -0.728000
     27 H031       -43.8460   -28.1700     1.5670 hc         1 QNV       0.053700
     28 H042       -43.0910   -29.2930    -0.3880 hc         1 QNV       0.054200
     29 H041       -42.1360   -30.1900     0.7820 hc         1 QNV       0.054200
     30 H081       -44.3300   -34.2190    -1.2330 ha         1 QNV       0.093000
     31 H091       -46.5990   -33.9710    -0.2930 ha         1 QNV       0.095000
     32 H101       -47.2280   -31.9110     0.9590 ha         1 QNV       0.118000
     33 H121       -45.8590   -28.9820     0.6630 h1         1 QNV       0.061700
     34 H161       -50.1510   -29.0740     2.9590 ha         1 QNV       0.151000
     35 H211       -53.3770   -29.1950     6.1650 h1         1 QNV       0.077700
     36 H212       -52.4540   -30.7050     5.9790 h1         1 QNV       0.077700
     37 H241       -47.7340   -29.5260     7.2500 ha         1 QNV       0.120000
     38 H251       -46.4760   -29.5130     5.1460 ha         1 QNV       0.158000
     39 H131       -45.7680   -30.0330     3.3750 hn         1 QNV       0.379500
     40 H191       -49.9040   -29.1970     8.3690 hn         1 QNV       0.162000
     41 H071       -42.2640   -33.2540    -1.4640 ho         1 QNV       0.444000
     42 C14        -47.5310   -29.2850     2.5610 c          1 QNV       0.602700
@<TRIPOS>BOND
     1     1     2 1   
     2     1    21 1   
     3     1    26 1   
     4     2     3 1   
     5     2    10 1   
     6     2    27 1   
     7     3     4 1   
     8     3    28 1   
     9     3    29 1   
    10     4     5 ar  
    11     4     9 ar  
    12     5     6 ar  
    13     5    22 1   
    14     6     7 ar  
    15     6    30 1   
    16     7     8 ar  
    17     7    31 1   
    18     8     9 ar  
    19     8    32 1   
    20     9    10 1   
    21    10    19 1   
    22    10    33 1   
    23    11    12 ar  
    24    11    18 ar  
    25    11    42 1   
    26    12    13 ar  
    27    12    34 1   
    28    13    14 ar  
    29    13    23 1   
    30    14    17 ar  
    31    14    20 1   
    32    15    16 1   
    33    15    20 1   
    34    15    24 2   
    35    16    23 1   
    36    16    35 1   
    37    16    36 1   
    38    17    18 ar  
    39    17    37 1   
    40    18    38 1   
    41    19    39 1   
    42    19    42 1   
    43    20    40 1   
    44    22    41 1   
    45    25    42 2   
@<TRIPOS>SUBSTRUCTURE
     1 QNV         1 TEMP              0 ****  ****    0 ROOT
