@<TRIPOS>MOLECULE
QNW
   28    28     1     0     0
SMALL
bcc


@<TRIPOS>ATOM
      1 C1          24.1630    66.3000    82.0310 ca         1 QNW      -0.079000
      2 C2          25.0910    67.0310    81.2950 ca         1 QNW      -0.011100
      3 C3          24.8610    67.2680    79.9400 ca         1 QNW       0.090100
      4 C4          23.7140    66.7560    79.3240 ca         1 QNW       0.096100
      5 C5          22.7910    66.0140    80.0560 ca         1 QNW      -0.075300
      6 C           28.5520    64.0160    82.0680 c          1 QNW       0.937600
      7 N           27.5460    65.3670    83.8970 n8         1 QNW      -0.885800
      8 C6          23.0320    65.7990    81.4130 ca         1 QNW      -0.147000
      9 CA          27.5160    65.1060    82.4690 c3         1 QNW       0.012500
     10 CB          27.7690    66.3890    81.6990 c3         1 QNW       0.087700
     11 SG          26.5440    67.7110    82.0410 ss         1 QNW      -0.411000
     12 O3          25.6980    67.9770    79.1600 oh         1 QNW      -0.527100
     13 O4          23.4710    66.9700    78.0120 oh         1 QNW      -0.509100
     14 C51         21.5660    65.4700    79.3850 c3         1 QNW      -0.030800
     15 H1          24.3360    66.1260    83.0850 ha         1 QNW       0.144000
     16 H3          26.6790    65.8020    84.1840 hn         1 QNW       0.331800
     17 H4          27.6070    64.4810    84.3810 hn         1 QNW       0.331800
     18 H6          22.3140    65.2280    81.9880 ha         1 QNW       0.125000
     19 H7          26.5420    64.7090    82.1340 h1         1 QNW       0.007700
     20 H8          27.7870    66.2110    80.6270 h1         1 QNW       0.078700
     21 H9          28.7270    66.8280    81.9900 h1         1 QNW       0.078700
     22 H10         26.4040    68.3530    79.7110 ho         1 QNW       0.459000
     23 H11         24.1750    67.5000    77.6200 ho         1 QNW       0.437000
     24 H12         21.8190    64.7860    78.5730 hc         1 QNW       0.037033
     25 H13         20.9480    64.9260    80.0970 hc         1 QNW       0.037033
     26 H14         20.9550    66.2640    78.9530 hc         1 QNW       0.037033
     27 O           28.8580    63.9670    80.8610 o          1 QNW      -0.826800
     28 OXT         28.9490    63.2590    82.9740 o          1 QNW      -0.826800
@<TRIPOS>BOND
     1     1     2 ar  
     2     1     8 ar  
     3     1    15 1   
     4     2     3 ar  
     5     2    11 1   
     6     3     4 ar  
     7     3    12 1   
     8     4     5 ar  
     9     4    13 1   
    10     5     8 ar  
    11     5    14 1   
    12     6     9 1   
    13     6    27 1   
    14     6    28 1   
    15     7     9 1   
    16     7    16 1   
    17     7    17 1   
    18     8    18 1   
    19     9    10 1   
    20     9    19 1   
    21    10    11 1   
    22    10    20 1   
    23    10    21 1   
    24    12    22 1   
    25    13    23 1   
    26    14    24 1   
    27    14    25 1   
    28    14    26 1   
@<TRIPOS>SUBSTRUCTURE
     1 QNW         1 TEMP              0 ****  ****    0 ROOT
