@<TRIPOS>MOLECULE
QNW
   28    28     1     0     0
SMALL
No Charge or Current Charge


@<TRIPOS>ATOM
      1 C1          24.2190    66.2670    81.9840 ca         1 QNW      -0.061000
      2 C2          25.1020    67.0500    81.2210 ca         1 QNW      -0.138000
      3 C3          24.8100    67.3050    79.8700 ca         1 QNW       0.090100
      4 C4          23.6470    66.7690    79.2760 ca         1 QNW       0.096100
      5 C5          22.7620    65.9750    80.0400 ca         1 QNW      -0.075300
      6 C           28.5360    63.9300    82.0440 c          1 QNW       0.727000
      7 N           27.6290    65.4350    84.0040 n8         1 QNW      -0.996200
      8 C6          23.0580    65.7320    81.3970 ca         1 QNW      -0.129000
      9 CA          27.6040    65.1190    82.5220 c3         1 QNW       0.012500
     10 CB          27.8560    66.3920    81.6650 c3         1 QNW       0.135600
     11 SG          26.5850    67.7180    81.9730 ss         1 QNW      -0.332000
     12 O3          25.6620    68.0840    79.1380 oh         1 QNW      -0.566100
     13 O4          23.3970    67.0370    77.9580 oh         1 QNW      -0.548100
     14 C51         21.4990    65.3870    79.4190 c3         1 QNW      -0.030800
     15 H1          24.4330    66.0700    83.0320 ha         1 QNW       0.126000
     16 H3          26.9560    66.1890    84.1870 hn         1 QNW       0.387000
     17 H4          27.2550    64.6320    84.5260 hn         1 QNW       0.387000
     18 H6          22.3880    65.1260    82.0020 ha         1 QNW       0.107000
     19 H7          26.5790    64.7940    82.3040 h1         1 QNW       0.007700
     20 H8          27.8360    66.1290    80.6000 h1         1 QNW       0.078700
     21 H9          28.8510    66.7950    81.8960 h1         1 QNW       0.078700
     22 H10         26.3530    68.3980    79.7620 ho         1 QNW       0.498000
     23 H11         24.1420    67.6020    77.6520 ho         1 QNW       0.476000
     24 H12         21.7450    64.7300    78.5770 hc         1 QNW       0.037033
     25 H13         20.9270    64.7940    80.1430 hc         1 QNW       0.037033
     26 H14         20.8390    66.1790    79.0470 hc         1 QNW       0.037033
     27 O           29.6040    64.1870    81.5020 o          1 QNW      -0.721500
     28 OXT         28.1410    62.7850    82.2270 o          1 QNW      -0.721500
@<TRIPOS>BOND
     1     1     2 ar  
     2     1     8 ar  
     3     1    15 1   
     4     2     3 ar  
     5     2    11 1   
     6     3     4 ar  
     7     3    12 1   
     8     4     5 ar  
     9     4    13 1   
    10     5     8 ar  
    11     5    14 1   
    12     6     9 1   
    13     6    27 1   
    14     6    28 1   
    15     7     9 1   
    16     7    16 1   
    17     7    17 1   
    18     8    18 1   
    19     9    10 1   
    20     9    19 1   
    21    10    11 1   
    22    10    20 1   
    23    10    21 1   
    24    12    22 1   
    25    13    23 1   
    26    14    24 1   
    27    14    25 1   
    28    14    26 1   
@<TRIPOS>SUBSTRUCTURE
     1 QNW         1 TEMP              0 ****  ****    0 ROOT
