@<TRIPOS>MOLECULE
QNY
   31    30     1     0     0
SMALL
No Charge or Current Charge


@<TRIPOS>ATOM
      1 O            3.3920     3.2650   -25.8300 o          1 QNY      -0.741500
      2 C            3.5310     3.7640   -24.7200 c          1 QNY       0.716000
      3 CA           4.7400     4.7610   -24.4960 c3         1 QNY       0.024500
      4 N            4.3950     6.2350   -24.5700 n8         1 QNY      -0.962200
      5 CB           5.5300     4.3940   -23.1940 c3         1 QNY       0.200300
      6 CG2          6.0730     2.9380   -23.2260 c3         1 QNY      -0.091100
      7 OG1          6.6660     5.3020   -23.0940 os         1 QNY      -0.506000
      8 CD           7.0640     5.7540   -21.7960 c3         1 QNY       0.626000
      9 OE2          6.0290     6.4560   -21.1760 oh         1 QNY      -0.743000
     10 OE1          7.3450     4.6940   -20.9320 oh         1 QNY      -0.743000
     11 CE2          8.3440     6.6300   -21.9470 c3         1 QNY      -0.086400
     12 CZ           8.3180     7.7350   -23.0500 c3         1 QNY       0.029500
     13 NH1          9.6980     8.3380   -23.1790 n8         1 QNY      -1.005200
     14 CH2          7.1340     8.7750   -22.8730 c          1 QNY       0.720000
     15 OT1          6.6530     8.9340   -21.7570 o          1 QNY      -0.712000
     16 OT2          6.7380     9.3720   -23.8650 o          1 QNY      -0.712000
     17 H2           5.4350     4.5940   -25.3300 h1         1 QNY      -0.004300
     18 H            5.2450     6.7680   -24.3590 hn         1 QNY       0.370000
     19 H4           4.1730     6.4810   -25.5410 hn         1 QNY       0.370000
     20 H6           4.8510     4.5040   -22.3360 h1         1 QNY       0.079700
     21 H7           6.5910     2.6740   -22.2990 hc         1 QNY       0.024033
     22 H8           5.2570     2.2180   -23.3490 hc         1 QNY       0.024033
     23 H9           6.7720     2.8040   -24.0600 hc         1 QNY       0.024033
     24 H10          6.2820     7.4110   -21.2900 ho         1 QNY       0.492000
     25 H11          7.8070     5.1170   -20.1830 ho         1 QNY       0.492000
     26 H12          9.1850     5.9580   -22.1630 hc         1 QNY       0.031700
     27 H13          8.5760     7.0960   -20.9810 hc         1 QNY       0.031700
     28 H14          8.1210     7.2310   -24.0060 h1         1 QNY       0.035700
     29 H15         10.3680     7.6040   -23.4360 hn         1 QNY       0.379000
     30 H16          9.7100     8.9760   -23.9860 hn         1 QNY       0.379000
     31 OXT          2.7510     3.5550   -23.7980 o          1 QNY      -0.741500
@<TRIPOS>BOND
     1     1     2 1   
     2     2     3 1   
     3     2    31 1   
     4     3     4 1   
     5     3     5 1   
     6     3    17 1   
     7     4    18 1   
     8     4    19 1   
     9     5     6 1   
    10     5     7 1   
    11     5    20 1   
    12     6    21 1   
    13     6    22 1   
    14     6    23 1   
    15     7     8 1   
    16     8     9 1   
    17     8    10 1   
    18     8    11 1   
    19     9    24 1   
    20    10    25 1   
    21    11    12 1   
    22    11    26 1   
    23    11    27 1   
    24    12    13 1   
    25    12    14 1   
    26    12    28 1   
    27    13    29 1   
    28    13    30 1   
    29    14    15 1   
    30    14    16 1   
@<TRIPOS>SUBSTRUCTURE
     1 QNY         1 TEMP              0 ****  ****    0 ROOT
