@<TRIPOS>MOLECULE
QNY
   31    30     1     0     0
SMALL
abcg2


@<TRIPOS>ATOM
      1 O            3.8580     2.9570   -25.6440 o          1 QNY      -0.741500
      2 C            3.7240     3.8150   -24.7480 c          1 QNY       0.716000
      3 CA           4.9450     4.7310   -24.4770 c3         1 QNY       0.024500
      4 N            4.5230     6.1230   -24.3720 n8         1 QNY      -0.962200
      5 CB           5.6400     4.3120   -23.1770 c3         1 QNY       0.200300
      6 CG2          6.0710     2.8530   -23.1930 c3         1 QNY      -0.091100
      7 OG1          6.7900     5.1440   -23.0290 os         1 QNY      -0.506000
      8 CD           7.0420     5.7620   -21.8030 c3         1 QNY       0.626000
      9 OE2          5.9640     6.4390   -21.3020 oh         1 QNY      -0.743000
     10 OE1          7.3700     4.7340   -20.9010 oh         1 QNY      -0.743000
     11 CE2          8.2670     6.6640   -22.0350 c3         1 QNY      -0.086400
     12 CZ           8.1620     7.7620   -23.1060 c3         1 QNY       0.029500
     13 NH1          9.5120     8.1220   -23.5180 n8         1 QNY      -1.005200
     14 CH2          7.3990     9.0210   -22.6450 c          1 QNY       0.720000
     15 OT1          6.3460     8.8280   -21.9710 o          1 QNY      -0.712000
     16 OT2          7.8230    10.1280   -22.9930 o          1 QNY      -0.712000
     17 H2           5.6680     4.5700   -25.2940 h1         1 QNY      -0.004300
     18 H            5.3410     6.7090   -24.2590 hn         1 QNY       0.370000
     19 H4           4.1000     6.4120   -25.2450 hn         1 QNY       0.370000
     20 H6           4.9380     4.4790   -22.3550 h1         1 QNY       0.079700
     21 H7           6.6090     2.6000   -22.2810 hc         1 QNY       0.024033
     22 H8           5.2110     2.1870   -23.2590 hc         1 QNY       0.024033
     23 H9           6.7230     2.6410   -24.0420 hc         1 QNY       0.024033
     24 H10          6.0520     7.4120   -21.5740 ho         1 QNY       0.492000
     25 H11          7.4040     5.1120   -20.0150 ho         1 QNY       0.492000
     26 H12          9.0910     6.0050   -22.3230 hc         1 QNY       0.031700
     27 H13          8.5590     7.1100   -21.0780 hc         1 QNY       0.031700
     28 H14          7.5730     7.3620   -23.9480 h1         1 QNY       0.035700
     29 H15          9.8870     7.3880   -24.1060 hn         1 QNY       0.379000
     30 H16          9.4680     8.9560   -24.0880 hn         1 QNY       0.379000
     31 OXT          2.7150     4.0010   -24.0410 o          1 QNY      -0.741500
@<TRIPOS>BOND
     1     1     2 1   
     2     2     3 1   
     3     2    31 1   
     4     3     4 1   
     5     3     5 1   
     6     3    17 1   
     7     4    18 1   
     8     4    19 1   
     9     5     6 1   
    10     5     7 1   
    11     5    20 1   
    12     6    21 1   
    13     6    22 1   
    14     6    23 1   
    15     7     8 1   
    16     8     9 1   
    17     8    10 1   
    18     8    11 1   
    19     9    24 1   
    20    10    25 1   
    21    11    12 1   
    22    11    26 1   
    23    11    27 1   
    24    12    13 1   
    25    12    14 1   
    26    12    28 1   
    27    13    29 1   
    28    13    30 1   
    29    14    15 1   
    30    14    16 1   
@<TRIPOS>SUBSTRUCTURE
     1 QNY         1 TEMP              0 ****  ****    0 ROOT
