@<TRIPOS>MOLECULE
QNZ
   44    47     1     0     0
SMALL
No Charge or Current Charge


@<TRIPOS>ATOM
      1 N2          -8.1430     1.3150     0.0220 n1         1 QNZ      -0.474000
      2 C23         -6.9760     1.3480     0.0590 cg         1 QNZ       0.335000
      3 C20         -5.5390     1.4000     0.1020 ca         1 QNZ      -0.026000
      4 C19         -4.8880     2.4630     0.7560 ca         1 QNZ      -0.075000
      5 C18         -3.4830     2.5120     0.7970 ca         1 QNZ      -0.098000
      6 C21         -4.7740     0.3880    -0.5070 ca         1 QNZ      -0.075000
      7 C22         -3.3690     0.4400    -0.4660 ca         1 QNZ      -0.098000
      8 C17         -2.7110     1.5050     0.1840 ca         1 QNZ      -0.028800
      9 C16         -1.2230     1.5850     0.2470 ce         1 QNZ      -0.120200
     10 C15         -0.2920     0.8690    -0.4560 cf         1 QNZ      -0.251600
     11 C14          1.1760     0.9350    -0.3640 cd         1 QNZ       0.579200
     12 N            2.0290    -0.1670    -0.4650 n          1 QNZ      -0.238500
     13 C5           1.3260    -1.3950    -0.7070 ca         1 QNZ      -0.030400
     14 C4           1.3040    -1.9440    -1.9990 ca         1 QNZ      -0.120000
     15 C3           0.6080    -3.1380    -2.2400 ca         1 QNZ      -0.143000
     16 C2          -0.0630    -3.7900    -1.1920 ca         1 QNZ      -0.075000
     17 C6           0.6610    -2.0520     0.3470 ca         1 QNZ      -0.071000
     18 C1          -0.0450    -3.2570     0.1190 ca         1 QNZ      -0.131600
     19 C           -0.7650    -3.9620     1.2560 c          1 QNZ       0.713600
     20 O1          -0.6950    -3.4830     2.3790 o          1 QNZ      -0.712500
     21 O           -1.3870    -4.9860     1.0100 o          1 QNZ      -0.712500
     22 N1           1.5860     2.1760    -0.0660 nc         1 QNZ      -0.669100
     23 C9           2.9730     2.3380     0.0520 ca         1 QNZ       0.205400
     24 C10          3.4460     3.6340     0.3360 ca         1 QNZ      -0.116000
     25 C11          4.8200     3.8970     0.4640 ca         1 QNZ      -0.083000
     26 C12          5.7450     2.8550     0.3080 ca         1 QNZ      -0.151000
     27 C13          5.2920     1.5570     0.0280 ca         1 QNZ      -0.037000
     28 C8           3.9080     1.3030    -0.0980 ca         1 QNZ      -0.205600
     29 C7           3.4070    -0.0600    -0.3750 c          1 QNZ       0.575600
     30 O2           4.1520    -1.0250    -0.5020 o          1 QNZ      -0.513000
     31 H19         -5.4670     3.2510     1.2330 ha         1 QNZ       0.124000
     32 H21         -5.2660    -0.4410    -1.0120 ha         1 QNZ       0.124000
     33 H18         -2.9950     3.3410     1.3050 ha         1 QNZ       0.127500
     34 H22         -2.8030    -0.3600    -0.9350 ha         1 QNZ       0.127500
     35 H16         -0.8540     2.3270     0.9590 ha         1 QNZ       0.196000
     36 H15         -0.6520     0.1260    -1.1620 ha         1 QNZ       0.211000
     37 H4           1.8200    -1.4440    -2.8150 ha         1 QNZ       0.099000
     38 H6           0.6920    -1.6190     1.3450 ha         1 QNZ       0.141000
     39 H3           0.5880    -3.5610    -3.2420 ha         1 QNZ       0.094000
     40 H2          -0.5960    -4.7150    -1.4010 ha         1 QNZ       0.133000
     41 H10          2.7360     4.4480     0.4560 ha         1 QNZ       0.124000
     42 H11          5.1640     4.9050     0.6820 ha         1 QNZ       0.105000
     43 H12          6.8100     3.0520     0.4060 ha         1 QNZ       0.109000
     44 H13          6.0160     0.7520    -0.0870 ha         1 QNZ       0.132000
@<TRIPOS>BOND
     1     1     2 3   
     2     2     3 1   
     3     3     4 ar  
     4     3     6 ar  
     5     4     5 ar  
     6     4    31 1   
     7     5     8 ar  
     8     5    33 1   
     9     6     7 ar  
    10     6    32 1   
    11     7     8 ar  
    12     7    34 1   
    13     8     9 1   
    14     9    10 2   
    15     9    35 1   
    16    10    11 1   
    17    10    36 1   
    18    11    12 1   
    19    11    22 2   
    20    12    13 1   
    21    12    29 1   
    22    13    14 ar  
    23    13    17 ar  
    24    14    15 ar  
    25    14    37 1   
    26    15    16 ar  
    27    15    39 1   
    28    16    18 ar  
    29    16    40 1   
    30    17    18 ar  
    31    17    38 1   
    32    18    19 1   
    33    19    20 1   
    34    19    21 1   
    35    22    23 1   
    36    23    24 ar  
    37    23    28 ar  
    38    24    25 ar  
    39    24    41 1   
    40    25    26 ar  
    41    25    42 1   
    42    26    27 ar  
    43    26    43 1   
    44    27    28 ar  
    45    27    44 1   
    46    28    29 1   
    47    29    30 2   
@<TRIPOS>SUBSTRUCTURE
     1 QNZ         1 TEMP              0 ****  ****    0 ROOT
