@<TRIPOS>MOLECULE
QNZ
   44    47     1     0     0
SMALL
abcg2


@<TRIPOS>ATOM
      1 N2          -8.0910     1.5010     0.0080 n1         1 QNZ      -0.474000
      2 C23         -6.9390     1.5280     0.0270 cg         1 QNZ       0.335000
      3 C20         -5.5130     1.5630     0.0480 ca         1 QNZ      -0.026000
      4 C19         -4.8530     2.6780     0.5580 ca         1 QNZ      -0.075000
      5 C18         -3.4710     2.7000     0.5740 ca         1 QNZ      -0.098000
      6 C21         -4.7850     0.4760    -0.4420 ca         1 QNZ      -0.075000
      7 C22         -3.4060     0.5110    -0.4210 ca         1 QNZ      -0.098000
      8 C17         -2.7240     1.6230     0.0850 ca         1 QNZ      -0.028800
      9 C16         -1.2700     1.7150     0.1350 ce         1 QNZ      -0.120200
     10 C15         -0.4110     0.8010    -0.3320 cf         1 QNZ      -0.251600
     11 C14          1.0380     0.9870    -0.2320 cd         1 QNZ       0.579200
     12 N            1.8410    -0.1100    -0.4740 n          1 QNZ      -0.238500
     13 C5           1.2680    -1.4000    -0.7230 ca         1 QNZ      -0.030400
     14 C4           1.1440    -1.8560    -2.0260 ca         1 QNZ      -0.120000
     15 C3           0.5690    -3.0990    -2.2470 ca         1 QNZ      -0.143000
     16 C2           0.1240    -3.8650    -1.1780 ca         1 QNZ      -0.075000
     17 C6           0.8340    -2.1630     0.3480 ca         1 QNZ      -0.071000
     18 C1           0.2480    -3.4060     0.1310 ca         1 QNZ      -0.131600
     19 C           -0.2490    -4.2380     1.3090 c          1 QNZ       0.713600
     20 O1          -0.0890    -3.7450     2.4410 o          1 QNZ      -0.712500
     21 O           -0.7730    -5.3330     1.0320 o          1 QNZ      -0.712500
     22 N1           1.5080     2.1480     0.0670 nc         1 QNZ      -0.669100
     23 C9           2.8610     2.3170     0.1530 ca         1 QNZ       0.205400
     24 C10          3.3670     3.5810     0.4930 ca         1 QNZ      -0.116000
     25 C11          4.7270     3.7780     0.5790 ca         1 QNZ      -0.083000
     26 C12          5.6200     2.7280     0.3280 ca         1 QNZ      -0.151000
     27 C13          5.1370     1.4820    -0.0050 ca         1 QNZ      -0.037000
     28 C8           3.7580     1.2700    -0.0940 ca         1 QNZ      -0.205600
     29 C7           3.2300    -0.0440    -0.4270 c          1 QNZ       0.575600
     30 O2           3.9060    -1.0310    -0.6430 o          1 QNZ      -0.513000
     31 H19         -5.4150     3.5200     0.9390 ha         1 QNZ       0.124000
     32 H21         -5.2990    -0.3900    -0.8350 ha         1 QNZ       0.124000
     33 H18         -2.9600     3.5660     0.9730 ha         1 QNZ       0.127500
     34 H22         -2.8660    -0.3450    -0.8010 ha         1 QNZ       0.127500
     35 H16         -0.8720     2.6100     0.6010 ha         1 QNZ       0.196000
     36 H15         -0.7700    -0.1050    -0.7980 ha         1 QNZ       0.211000
     37 H4           1.4820    -1.2460    -2.8540 ha         1 QNZ       0.099000
     38 H6           0.9440    -1.7870     1.3570 ha         1 QNZ       0.141000
     39 H3           0.4640    -3.4670    -3.2590 ha         1 QNZ       0.094000
     40 H2          -0.3270    -4.8300    -1.3620 ha         1 QNZ       0.133000
     41 H10          2.6710     4.3870     0.6850 ha         1 QNZ       0.124000
     42 H11          5.1100     4.7540     0.8440 ha         1 QNZ       0.105000
     43 H12          6.6860     2.8980     0.3960 ha         1 QNZ       0.109000
     44 H13          5.8190     0.6640    -0.1980 ha         1 QNZ       0.132000
@<TRIPOS>BOND
     1     1     2 3   
     2     2     3 1   
     3     3     4 ar  
     4     3     6 ar  
     5     4     5 ar  
     6     4    31 1   
     7     5     8 ar  
     8     5    33 1   
     9     6     7 ar  
    10     6    32 1   
    11     7     8 ar  
    12     7    34 1   
    13     8     9 1   
    14     9    10 2   
    15     9    35 1   
    16    10    11 1   
    17    10    36 1   
    18    11    12 1   
    19    11    22 2   
    20    12    13 1   
    21    12    29 1   
    22    13    14 ar  
    23    13    17 ar  
    24    14    15 ar  
    25    14    37 1   
    26    15    16 ar  
    27    15    39 1   
    28    16    18 ar  
    29    16    40 1   
    30    17    18 ar  
    31    17    38 1   
    32    18    19 1   
    33    19    20 1   
    34    19    21 1   
    35    22    23 1   
    36    23    24 ar  
    37    23    28 ar  
    38    24    25 ar  
    39    24    41 1   
    40    25    26 ar  
    41    25    42 1   
    42    26    27 ar  
    43    26    43 1   
    44    27    28 ar  
    45    27    44 1   
    46    28    29 1   
    47    29    30 2   
@<TRIPOS>SUBSTRUCTURE
     1 QNZ         1 TEMP              0 ****  ****    0 ROOT
