@<TRIPOS>MOLECULE
QO0
   43    46     1     0     0
SMALL
abcg2


@<TRIPOS>ATOM
      1 N1         -16.7720     3.8140    25.3860 nb         1 QO0      -0.651000
      2 C4         -22.2060     5.2650    30.9920 ca         1 QO0       0.180100
      3 C5         -22.3260     4.6880    32.2570 ca         1 QO0      -0.138000
      4 C6         -22.1130     3.3310    32.4250 ca         1 QO0       0.168000
      5 C7         -21.7710     2.5320    31.3310 ca         1 QO0       0.081000
      6 C8         -21.6570     3.1130    30.0800 ca         1 QO0      -0.037000
      7 C10        -20.2740     5.2330    28.1320 c          1 QO0       0.606100
      8 C13        -16.1630     4.9640    25.2060 ca         1 QO0       0.357900
      9 C15        -16.0420     7.4330    25.3120 ca         1 QO0      -0.083000
     10 C17        -17.9370     8.6510    26.1720 ca         1 QO0      -0.093000
     11 O2         -19.4730     5.6850    28.9410 o          1 QO0      -0.573100
     12 C1         -21.7670     5.0680    28.4970 c6         1 QO0       0.165300
     13 C9         -21.8770     4.4720    29.8880 ca         1 QO0      -0.183300
     14 CL         -22.2720     2.6530    34.0180 cl         1 QO0      -0.172000
     15 O1         -22.4470     6.5960    30.9160 os         1 QO0      -0.341100
     16 C3         -22.0480     7.2660    29.7020 c6         1 QO0       0.160600
     17 C2         -22.4240     6.4620    28.4760 c6         1 QO0      -0.133400
     18 O          -22.3230     4.2000    27.5120 os         1 QO0      -0.483000
     19 C          -23.7220     3.9250    27.5860 c3         1 QO0       0.149900
     20 C11        -18.6580     4.9830    26.3170 ca         1 QO0      -0.076000
     21 C19        -18.0310     6.2400    26.1120 ca         1 QO0      -0.002000
     22 C18        -18.6240     7.4880    26.4130 ca         1 QO0      -0.088000
     23 C16        -16.6350     8.6280    25.6240 ca         1 QO0      -0.107000
     24 C14        -16.7270     6.2170    25.5430 ca         1 QO0      -0.090000
     25 C12        -18.0070     3.8340    25.9450 ca         1 QO0       0.310900
     26 H1         -22.5860     5.3090    33.1020 ha         1 QO0       0.148000
     27 H2         -21.4070     2.4940    29.2300 ha         1 QO0       0.138000
     28 H3         -15.1690     4.9390    24.7680 h4         1 QO0       0.022100
     29 H4         -15.0480     7.4000    24.8820 ha         1 QO0       0.119000
     30 H5         -18.3980     9.6030    26.4030 ha         1 QO0       0.115000
     31 H6         -20.9730     7.4440    29.7470 h1         1 QO0       0.075200
     32 H7         -22.5730     8.2180    29.7170 h1         1 QO0       0.075200
     33 H8         -22.1320     7.0010    27.5740 hc         1 QO0       0.068200
     34 H9         -23.5070     6.3370    28.4560 hc         1 QO0       0.068200
     35 H10        -23.8930     3.0750    26.9280 h1         1 QO0       0.042700
     36 H11        -24.0220     3.6590    28.6020 h1         1 QO0       0.042700
     37 H12        -24.3170     4.7710    27.2390 h1         1 QO0       0.042700
     38 H13        -20.6830     4.4180    26.3390 hn         1 QO0       0.182000
     39 H14        -19.6200     7.5220    26.8300 ha         1 QO0       0.117000
     40 H15        -16.1140     9.5600    25.4470 ha         1 QO0       0.118000
     41 H16        -18.4880     2.8740    26.0960 h4         1 QO0       0.024100
     42 N          -19.9630     4.8950    26.8630 ns         1 QO0      -0.150000
     43 CL1        -21.4910     0.8220    31.5060 cl         1 QO0      -0.178000
@<TRIPOS>BOND
     1     1     8 ar  
     2     1    25 ar  
     3     2     3 ar  
     4     2    13 ar  
     5     2    15 1   
     6     3     4 ar  
     7     3    26 1   
     8     4     5 ar  
     9     4    14 1   
    10     5     6 ar  
    11     5    43 1   
    12     6    13 ar  
    13     6    27 1   
    14     7    11 2   
    15     7    12 1   
    16     7    42 1   
    17     8    24 ar  
    18     8    28 1   
    19     9    23 ar  
    20     9    24 ar  
    21     9    29 1   
    22    10    22 ar  
    23    10    23 ar  
    24    10    30 1   
    25    12    13 1   
    26    12    17 1   
    27    12    18 1   
    28    15    16 1   
    29    16    17 1   
    30    16    31 1   
    31    16    32 1   
    32    17    33 1   
    33    17    34 1   
    34    18    19 1   
    35    19    35 1   
    36    19    36 1   
    37    19    37 1   
    38    20    21 ar  
    39    20    25 ar  
    40    20    42 1   
    41    21    22 ar  
    42    21    24 ar  
    43    22    39 1   
    44    23    40 1   
    45    25    41 1   
    46    38    42 1   
@<TRIPOS>SUBSTRUCTURE
     1 QO0         1 TEMP              0 ****  ****    0 ROOT
