@<TRIPOS>MOLECULE
QO0
   43    46     1     0     0
SMALL
No Charge or Current Charge


@<TRIPOS>ATOM
      1 N1         -16.2790     4.2150    26.4770 nb         1 QO0      -0.651000
      2 C4         -22.0460     5.2560    30.6750 ca         1 QO0       0.180100
      3 C5         -21.9930     4.9340    32.0390 ca         1 QO0      -0.138000
      4 C6         -21.8080     3.6060    32.4480 ca         1 QO0       0.168000
      5 C7         -21.6810     2.5870    31.4840 ca         1 QO0       0.081000
      6 C8         -21.7480     2.9060    30.1180 ca         1 QO0      -0.037000
      7 C10        -20.6200     4.2150    27.5530 c          1 QO0       0.606100
      8 C13        -15.7960     5.3620    25.9510 ca         1 QO0       0.357900
      9 C15        -16.0000     7.7050    25.2850 ca         1 QO0      -0.083000
     10 C17        -18.1070     8.8730    25.6110 ca         1 QO0      -0.093000
     11 O2         -20.3140     3.0670    27.2370 o          1 QO0      -0.573100
     12 C1         -22.0430     4.5570    28.1760 c6         1 QO0       0.165300
     13 C9         -21.9360     4.2430    29.6920 ca         1 QO0      -0.183300
     14 Cl         -21.7390     3.2420    34.1730 cl         1 QO0      -0.172000
     15 O1         -22.2290     6.5750    30.3350 os         1 QO0      -0.341100
     16 C3         -21.8850     7.0090    29.0110 c6         1 QO0       0.160600
     17 C2         -22.4850     6.0490    27.9620 c6         1 QO0      -0.133400
     18 O          -23.0420     3.6310    27.6330 os         1 QO0      -0.483000
     19 C          -24.3890     3.6180    28.1650 c3         1 QO0       0.149900
     20 C11        -18.4230     5.3310    26.8260 ca         1 QO0      -0.076000
     21 C19        -17.9020     6.5300    26.2820 ca         1 QO0      -0.002000
     22 C18        -18.6740     7.7100    26.1610 ca         1 QO0      -0.088000
     23 C16        -16.7730     8.8710    25.1740 ca         1 QO0      -0.107000
     24 C14        -16.5620     6.5370    25.8360 ca         1 QO0      -0.090000
     25 C12        -17.5620     4.2070    26.9030 ca         1 QO0       0.310900
     26 H1         -22.0910     5.7200    32.7820 ha         1 QO0       0.148000
     27 H2         -21.6660     2.1040    29.3870 ha         1 QO0       0.138000
     28 H3         -14.7590     5.3370    25.6150 h4         1 QO0       0.022100
     29 H4         -14.9660     7.7090    24.9430 ha         1 QO0       0.119000
     30 H5         -18.7060     9.7770    25.5200 ha         1 QO0       0.115000
     31 H6         -20.7900     7.0560    28.9350 h1         1 QO0       0.075200
     32 H7         -22.2710     8.0270    28.8610 h1         1 QO0       0.075200
     33 H8         -22.2330     6.3860    26.9470 hc         1 QO0       0.068200
     34 H9         -23.5730     6.1520    28.0330 hc         1 QO0       0.068200
     35 H10        -24.9450     2.7660    27.7540 h1         1 QO0       0.042700
     36 H11        -24.3950     3.5210    29.2580 h1         1 QO0       0.042700
     37 H12        -24.9420     4.5250    27.8920 h1         1 QO0       0.042700
     38 H13        -20.1520     6.1920    27.5320 hn         1 QO0       0.182000
     39 H14        -19.7110     7.7430    26.4820 ha         1 QO0       0.117000
     40 H15        -16.3390     9.7730    24.7480 ha         1 QO0       0.118000
     41 H16        -17.8900     3.2690    27.3450 h4         1 QO0       0.024100
     42 N          -19.7650     5.2860    27.3100 ns         1 QO0      -0.150000
     43 Cl1        -21.4510     0.9030    31.9600 cl         1 QO0      -0.178000
@<TRIPOS>BOND
     1     1     8 ar  
     2     1    25 ar  
     3     2     3 ar  
     4     2    13 ar  
     5     2    15 1   
     6     3     4 ar  
     7     3    26 1   
     8     4     5 ar  
     9     4    14 1   
    10     5     6 ar  
    11     5    43 1   
    12     6    13 ar  
    13     6    27 1   
    14     7    11 2   
    15     7    12 1   
    16     7    42 1   
    17     8    24 ar  
    18     8    28 1   
    19     9    23 ar  
    20     9    24 ar  
    21     9    29 1   
    22    10    22 ar  
    23    10    23 ar  
    24    10    30 1   
    25    12    13 1   
    26    12    17 1   
    27    12    18 1   
    28    15    16 1   
    29    16    17 1   
    30    16    31 1   
    31    16    32 1   
    32    17    33 1   
    33    17    34 1   
    34    18    19 1   
    35    19    35 1   
    36    19    36 1   
    37    19    37 1   
    38    20    21 ar  
    39    20    25 ar  
    40    20    42 1   
    41    21    22 ar  
    42    21    24 ar  
    43    22    39 1   
    44    23    40 1   
    45    25    41 1   
    46    38    42 1   
@<TRIPOS>SUBSTRUCTURE
     1 QO0         1 TEMP              0 ****  ****    0 ROOT
