@<TRIPOS>MOLECULE
QO2
   31    31     1     0     0
SMALL
No Charge or Current Charge


@<TRIPOS>ATOM
      1 N           27.5590    65.0980    83.8760 n8         1 QO2      -0.893800
      2 C           28.6710    64.1540    81.6650 c          1 QO2       0.935600
      3 C4          24.8180    67.2690    80.0230 ca         1 QO2       0.085100
      4 C5          24.8990    66.9340    81.3900 ca         1 QO2      -0.003100
      5 C6          23.9230    66.0810    81.9710 ca         1 QO2      -0.021300
      6 O           29.7180    64.6330    81.2370 o          1 QO2      -0.826800
      7 C3          23.7910    66.7400    79.2220 ca         1 QO2       0.097100
      8 C2          22.8430    65.8760    79.7810 ca         1 QO2      -0.125000
      9 C1          22.8980    65.5390    81.1480 ca         1 QO2      -0.097300
     10 O3          23.7210    67.0700    77.8990 oh         1 QO2      -0.509100
     11 C61         23.9770    65.7270    83.4620 c3         1 QO2      -0.051800
     12 CA          27.6000    65.1010    82.3620 c3         1 QO2       0.014500
     13 CB          27.7130    66.5530    81.8250 c3         1 QO2       0.087700
     14 SG          26.2690    67.6100    82.3470 ss         1 QO2      -0.415000
     15 H1          26.8160    65.7360    84.1780 hn         1 QO2       0.334800
     16 H2          27.2630    64.1730    84.2050 hn         1 QO2       0.334800
     17 H5          22.3030    63.7620    82.2640 hc         1 QO2       0.034367
     18 H6          21.1530    65.1090    82.3770 hc         1 QO2       0.034367
     19 H7          21.2400    64.1330    80.9080 hc         1 QO2       0.034367
     20 H8          22.0580    65.4700    79.1470 ha         1 QO2       0.134000
     21 H9          24.4720    67.6790    77.7240 ho         1 QO2       0.438000
     22 H10         26.2980    68.4420    80.2240 ho         1 QO2       0.458000
     23 H11         24.4960    64.7740    83.6170 hc         1 QO2       0.047367
     24 H12         24.4890    66.4890    84.0600 hc         1 QO2       0.047367
     25 H13         22.9760    65.6360    83.8970 hc         1 QO2       0.047367
     26 H14         26.6200    64.7250    82.0370 h1         1 QO2       0.009700
     27 H15         27.7630    66.5350    80.7290 h1         1 QO2       0.079700
     28 H16         28.6410    67.0070    82.1980 h1         1 QO2       0.079700
     29 C7          21.8420    64.5850    81.7050 c3         1 QO2      -0.035800
     30 OXT         28.4120    62.9580    81.5650 o          1 QO2      -0.826800
     31 O4          25.7380    68.1280    79.4800 oh         1 QO2      -0.529100
@<TRIPOS>BOND
     1     1    12 1   
     2     1    15 1   
     3     1    16 1   
     4     2     6 1   
     5     2    12 1   
     6     2    30 1   
     7     3     4 ar  
     8     3     7 ar  
     9     3    31 1   
    10     4     5 ar  
    11     4    14 1   
    12     5     9 ar  
    13     5    11 1   
    14     7     8 ar  
    15     7    10 1   
    16     8     9 ar  
    17     8    20 1   
    18     9    29 1   
    19    10    21 1   
    20    11    23 1   
    21    11    24 1   
    22    11    25 1   
    23    12    13 1   
    24    12    26 1   
    25    13    14 1   
    26    13    27 1   
    27    13    28 1   
    28    17    29 1   
    29    18    29 1   
    30    19    29 1   
    31    22    31 1   
@<TRIPOS>SUBSTRUCTURE
     1 QO2         1 TEMP              0 ****  ****    0 ROOT
