@<TRIPOS>MOLECULE
QO2
   31    31     1     0     0
SMALL
bcc


@<TRIPOS>ATOM
      1 N           27.6640    65.2250    83.9080 n8         1 QO2      -0.893800
      2 C           28.5730    64.0990    81.8980 c          1 QO2       0.935600
      3 C4          24.8100    67.3600    80.0400 ca         1 QO2       0.085100
      4 C5          24.9010    66.9360    81.3690 ca         1 QO2      -0.003100
      5 C6          23.9530    66.0570    81.9150 ca         1 QO2      -0.021300
      6 O           28.8160    64.1950    80.6800 o          1 QO2      -0.826800
      7 C3          23.7880    66.8780    79.2240 ca         1 QO2       0.097100
      8 C2          22.8700    65.9890    79.7570 ca         1 QO2      -0.125000
      9 C1          22.9340    65.5780    81.0840 ca         1 QO2      -0.097300
     10 O3          23.6710    67.2520    77.9300 oh         1 QO2      -0.509100
     11 C61         24.0030    65.6130    83.3470 c3         1 QO2      -0.051800
     12 CA          27.5090    65.0790    82.4720 c3         1 QO2       0.014500
     13 CB          27.5970    66.4340    81.7950 c3         1 QO2       0.087700
     14 SG          26.2640    67.5900    82.3010 ss         1 QO2      -0.415000
     15 H1          26.7890    65.4980    84.3340 hn         1 QO2       0.334800
     16 H2          27.9120    64.3210    84.2870 hn         1 QO2       0.334800
     17 H5          22.3760    63.7080    82.0090 hc         1 QO2       0.034367
     18 H6          21.3200    65.0440    82.4200 hc         1 QO2       0.034367
     19 H7          21.2180    64.3080    80.8250 hc         1 QO2       0.034367
     20 H8          22.0800    65.6130    79.1170 ha         1 QO2       0.134000
     21 H9          24.3680    67.8760    77.6980 ho         1 QO2       0.438000
     22 H10         26.2640    68.5770    80.1670 ho         1 QO2       0.458000
     23 H11         24.2800    64.5590    83.4300 hc         1 QO2       0.047367
     24 H12         24.7180    66.1910    83.9270 hc         1 QO2       0.047367
     25 H13         23.0290    65.7220    83.8280 hc         1 QO2       0.047367
     26 H14         26.5350    64.6380    82.1940 h1         1 QO2       0.009700
     27 H15         27.5680    66.3410    80.7120 h1         1 QO2       0.079700
     28 H16         28.5250    66.9390    82.0730 h1         1 QO2       0.079700
     29 C7          21.9100    64.6110    81.6090 c3         1 QO2      -0.035800
     30 OXT         29.0540    63.2730    82.6980 o          1 QO2      -0.826800
     31 O4          25.6800    68.2230    79.4760 oh         1 QO2      -0.529100
@<TRIPOS>BOND
     1     1    12 1   
     2     1    15 1   
     3     1    16 1   
     4     2     6 1   
     5     2    12 1   
     6     2    30 1   
     7     3     4 ar  
     8     3     7 ar  
     9     3    31 1   
    10     4     5 ar  
    11     4    14 1   
    12     5     9 ar  
    13     5    11 1   
    14     7     8 ar  
    15     7    10 1   
    16     8     9 ar  
    17     8    20 1   
    18     9    29 1   
    19    10    21 1   
    20    11    23 1   
    21    11    24 1   
    22    11    25 1   
    23    12    13 1   
    24    12    26 1   
    25    13    14 1   
    26    13    27 1   
    27    13    28 1   
    28    17    29 1   
    29    18    29 1   
    30    19    29 1   
    31    22    31 1   
@<TRIPOS>SUBSTRUCTURE
     1 QO2         1 TEMP              0 ****  ****    0 ROOT
