@<TRIPOS>MOLECULE
QO3
   47    50     1     0     0
SMALL
abcg2


@<TRIPOS>ATOM
      1 C18        -49.3680   -28.9970     6.8010 ca         1 QO3       0.613900
      2 C16        -49.4990   -29.2640     4.5220 ca         1 QO3       0.418900
      3 C15        -48.1280   -29.1400     4.3370 ca         1 QO3      -0.236600
      4 C14        -47.5720   -29.2380     2.9600 c          1 QO3       0.615700
      5 C12        -45.5550   -29.6080     1.5950 c5         1 QO3       0.165000
      6 C11        -45.2000   -28.2970     0.9140 ca         1 QO3      -0.062300
      7 C10        -46.0330   -27.4350     0.2110 ca         1 QO3      -0.112000
      8 C20        -51.4020   -29.1890     8.2160 c3         1 QO3       0.264800
      9 C02        -44.0640   -31.2450     3.0000 c          1 QO3       0.718000
     10 C03        -44.1590   -30.2680     1.8130 c5         1 QO3      -0.203700
     11 C04        -43.1640   -29.0860     1.8970 c5         1 QO3      -0.013100
     12 C05        -43.8530   -28.0050     1.1120 ca         1 QO3      -0.091300
     13 C06        -43.3200   -26.8230     0.6080 ca         1 QO3       0.116100
     14 C08        -44.1430   -25.9510    -0.1050 ca         1 QO3      -0.208000
     15 C09        -45.4880   -26.2600    -0.3000 ca         1 QO3      -0.102000
     16 C21        -51.7100   -30.6650     8.3030 cx         1 QO3      -0.144700
     17 C22        -52.8650   -31.1260     9.1470 cx         1 QO3      -0.135900
     18 C23        -51.4490   -31.3980     9.5890 cx         1 QO3      -0.135900
     19 C24        -47.9620   -28.8540     6.7200 ca         1 QO3      -0.249000
     20 C25        -47.3540   -28.9280     5.4940 ca         1 QO3       0.011000
     21 N13        -46.2390   -29.3890     2.8650 ns         1 QO3      -0.481900
     22 N17        -50.1160   -29.2060     5.7030 nb         1 QO3      -0.769000
     23 N19        -49.9940   -28.8940     8.0000 nu         1 QO3      -0.939100
     24 O01        -44.2550   -30.7580     4.1540 o          1 QO3      -0.726500
     25 O07        -41.9950   -26.5680     0.8320 oh         1 QO3      -0.540100
     26 O26        -48.3080   -29.1830     1.9630 o          1 QO3      -0.671100
     27 O27        -43.8010   -32.4430     2.7470 o          1 QO3      -0.726500
     28 H161       -50.1330   -29.4310     3.6590 h4         1 QO3       0.033100
     29 H121       -46.1920   -30.2310     0.9670 h1         1 QO3       0.066700
     30 H101       -47.0780   -27.6720     0.0680 ha         1 QO3       0.133000
     31 H201       -51.6930   -28.7010     9.1480 h1         1 QO3       0.053200
     32 H202       -51.9760   -28.7310     7.4100 h1         1 QO3       0.053200
     33 H031       -43.9440   -30.8250     0.9010 hc         1 QO3       0.051700
     34 H041       -43.0130   -28.7780     2.9360 hc         1 QO3       0.060700
     35 H042       -42.1860   -29.3500     1.4920 hc         1 QO3       0.060700
     36 H081       -43.7260   -25.0350    -0.5090 ha         1 QO3       0.093000
     37 H091       -46.1100   -25.5720    -0.8600 ha         1 QO3       0.097000
     38 H211       -51.5290   -31.2170     7.3880 hc         1 QO3       0.100700
     39 H221       -53.4220   -30.3700     9.6870 hc         1 QO3       0.066450
     40 H222       -53.4590   -31.9560     8.7910 hc         1 QO3       0.066450
     41 H231       -51.0630   -30.8240    10.4220 hc         1 QO3       0.066450
     42 H232       -51.0830   -32.4150     9.5340 hc         1 QO3       0.066450
     43 H241       -47.3880   -28.6800     7.6210 ha         1 QO3       0.114000
     44 H251       -46.2810   -28.8030     5.4330 ha         1 QO3       0.144000
     45 H131       -45.6810   -29.6490     3.6790 hn         1 QO3       0.377500
     46 H191       -49.4010   -28.8880     8.8150 hn         1 QO3       0.478000
     47 H071       -41.7500   -25.7260     0.4250 ho         1 QO3       0.444000
@<TRIPOS>BOND
     1     1    19 ar  
     2     1    22 ar  
     3     1    23 1   
     4     2     3 ar  
     5     2    22 ar  
     6     2    28 1   
     7     3     4 1   
     8     3    20 ar  
     9     4    21 1   
    10     4    26 2   
    11     5     6 1   
    12     5    10 1   
    13     5    21 1   
    14     5    29 1   
    15     6     7 ar  
    16     6    12 ar  
    17     7    15 ar  
    18     7    30 1   
    19     8    16 1   
    20     8    23 1   
    21     8    31 1   
    22     8    32 1   
    23     9    10 1   
    24     9    24 1   
    25     9    27 1   
    26    10    11 1   
    27    10    33 1   
    28    11    12 1   
    29    11    34 1   
    30    11    35 1   
    31    12    13 ar  
    32    13    14 ar  
    33    13    25 1   
    34    14    15 ar  
    35    14    36 1   
    36    15    37 1   
    37    16    17 1   
    38    16    18 1   
    39    16    38 1   
    40    17    18 1   
    41    17    39 1   
    42    17    40 1   
    43    18    41 1   
    44    18    42 1   
    45    19    20 ar  
    46    19    43 1   
    47    20    44 1   
    48    21    45 1   
    49    23    46 1   
    50    25    47 1   
@<TRIPOS>SUBSTRUCTURE
     1 QO3         1 TEMP              0 ****  ****    0 ROOT
