@<TRIPOS>MOLECULE
QO3
   47    50     1     0     0
SMALL
No Charge or Current Charge


@<TRIPOS>ATOM
      1 C18        -49.3060   -28.9320     6.8520 ca         1 QO3       0.613900
      2 C16        -49.4790   -28.9930     4.5630 ca         1 QO3       0.418900
      3 C15        -48.0920   -29.1590     4.4000 ca         1 QO3      -0.236600
      4 C14        -47.5450   -29.2710     3.0080 c          1 QO3       0.615700
      5 C12        -45.5900   -29.6440     1.5810 c5         1 QO3       0.165000
      6 C11        -45.2160   -28.3500     0.8960 ca         1 QO3      -0.062300
      7 C10        -46.0550   -27.5440     0.1080 ca         1 QO3      -0.112000
      8 C20        -51.3780   -29.0790     8.3340 c3         1 QO3       0.264800
      9 C02        -44.0130   -31.2110     3.0380 c          1 QO3       0.718000
     10 C03        -44.1350   -30.2370     1.8320 c5         1 QO3      -0.203700
     11 C04        -43.1780   -28.9890     1.9940 c5         1 QO3      -0.013100
     12 C05        -43.8980   -27.9900     1.1230 ca         1 QO3      -0.091300
     13 C06        -43.3710   -26.8060     0.5760 ca         1 QO3       0.116100
     14 C08        -44.1990   -25.9900    -0.2150 ca         1 QO3      -0.208000
     15 C09        -45.5400   -26.3590    -0.4500 ca         1 QO3      -0.102000
     16 C21        -51.6670   -30.5770     8.2890 cx         1 QO3      -0.144700
     17 C22        -52.8950   -31.1450     8.9670 cx         1 QO3      -0.135900
     18 C23        -51.5220   -31.4430     9.5210 cx         1 QO3      -0.135900
     19 C24        -47.9190   -29.0880     6.8050 ca         1 QO3      -0.249000
     20 C25        -47.2880   -29.2060     5.5590 ca         1 QO3       0.011000
     21 N13        -46.1860   -29.4600     2.9020 ns         1 QO3      -0.481900
     22 N17        -50.0820   -28.8800     5.7680 nb         1 QO3      -0.769000
     23 N19        -49.9580   -28.8090     8.0580 nu         1 QO3      -0.939100
     24 O01        -44.1780   -30.7950     4.1770 o          1 QO3      -0.726500
     25 O07        -42.0760   -26.4460     0.8040 oh         1 QO3      -0.540100
     26 O26        -48.2720   -29.1980     2.0260 o          1 QO3      -0.671100
     27 O27        -43.7080   -32.3720     2.8150 o          1 QO3      -0.726500
     28 H161       -50.1470   -28.9470     3.7020 h4         1 QO3       0.033100
     29 H121       -46.1870   -30.3020     0.9330 h1         1 QO3       0.066700
     30 H101       -47.0890   -27.8320    -0.0680 ha         1 QO3       0.133000
     31 H201       -51.6380   -28.6960     9.3300 h1         1 QO3       0.053200
     32 H202       -52.0200   -28.5580     7.6100 h1         1 QO3       0.053200
     33 H031       -43.8530   -30.7920     0.9300 hc         1 QO3       0.051700
     34 H041       -43.1170   -28.6340     3.0290 hc         1 QO3       0.060700
     35 H042       -42.1580   -29.2050     1.6560 hc         1 QO3       0.060700
     36 H081       -43.8130   -25.0710    -0.6490 ha         1 QO3       0.093000
     37 H091       -46.1790   -25.7260    -1.0620 ha         1 QO3       0.097000
     38 H211       -51.3970   -31.0230     7.3350 hc         1 QO3       0.100700
     39 H221       -53.5310   -30.4660     9.5300 hc         1 QO3       0.066450
     40 H222       -53.4240   -31.9500     8.4630 hc         1 QO3       0.066450
     41 H231       -51.2380   -30.9620    10.4550 hc         1 QO3       0.066450
     42 H232       -51.1270   -32.4480     9.3890 hc         1 QO3       0.066450
     43 H241       -47.3370   -29.1190     7.7200 ha         1 QO3       0.114000
     44 H251       -46.2070   -29.3270     5.5180 ha         1 QO3       0.144000
     45 H131       -45.6550   -29.6040     3.7550 hn         1 QO3       0.377500
     46 H191       -49.3340   -28.8400     8.8590 hn         1 QO3       0.478000
     47 H071       -41.9080   -25.5990     0.3400 ho         1 QO3       0.444000
@<TRIPOS>BOND
     1     1    19 ar  
     2     1    22 ar  
     3     1    23 1   
     4     2     3 ar  
     5     2    22 ar  
     6     2    28 1   
     7     3     4 1   
     8     3    20 ar  
     9     4    21 1   
    10     4    26 2   
    11     5     6 1   
    12     5    10 1   
    13     5    21 1   
    14     5    29 1   
    15     6     7 ar  
    16     6    12 ar  
    17     7    15 ar  
    18     7    30 1   
    19     8    16 1   
    20     8    23 1   
    21     8    31 1   
    22     8    32 1   
    23     9    10 1   
    24     9    24 1   
    25     9    27 1   
    26    10    11 1   
    27    10    33 1   
    28    11    12 1   
    29    11    34 1   
    30    11    35 1   
    31    12    13 ar  
    32    13    14 ar  
    33    13    25 1   
    34    14    15 ar  
    35    14    36 1   
    36    15    37 1   
    37    16    17 1   
    38    16    18 1   
    39    16    38 1   
    40    17    18 1   
    41    17    39 1   
    42    17    40 1   
    43    18    41 1   
    44    18    42 1   
    45    19    20 ar  
    46    19    43 1   
    47    20    44 1   
    48    21    45 1   
    49    23    46 1   
    50    25    47 1   
@<TRIPOS>SUBSTRUCTURE
     1 QO3         1 TEMP              0 ****  ****    0 ROOT
