@<TRIPOS>MOLECULE
QO4
   59    61     1     0     0
SMALL
No Charge or Current Charge


@<TRIPOS>ATOM
      1 C5         -29.9050    21.9340   -10.0230 c3         1 QO4       0.179600
      2 C6         -29.2410    23.2910    -9.7560 c3         1 QO4      -0.165400
      3 C7         -27.7270    23.1120    -9.5730 c          1 QO4       0.609100
      4 C10        -27.0220    24.9390   -11.2240 c6         1 QO4       0.072500
      5 N12        -24.6730    25.6560   -10.5380 nh         1 QO4      -0.761300
      6 C13        -24.4690    24.2980    -9.9230 c6         1 QO4       0.196800
      7 C15        -23.6320    26.6280   -10.5510 ca         1 QO4       0.416900
      8 C17        -21.4080    27.1280   -10.2390 ca         1 QO4       0.213400
      9 C26        -27.0340    21.0720   -13.5460 cc         1 QO4       0.236400
     10 C28        -25.0410    22.3760   -14.2420 c          1 QO4       0.575200
     11 C1         -29.3910    18.2110   -13.2880 c3         1 QO4      -0.110100
     12 C2         -29.1410    19.6950   -12.9630 c3         1 QO4       0.233500
     13 O4         -29.4220    21.4650   -11.2890 os         1 QO4      -0.469000
     14 O8         -27.3030    22.4900    -8.6060 o          1 QO4      -0.593100
     15 N9         -26.8260    23.6340   -10.5310 n          1 QO4      -0.409800
     16 C11        -26.1200    26.0590   -10.6340 c6         1 QO4       0.196800
     17 C14        -25.3970    23.2250   -10.5480 c6         1 QO4       0.072500
     18 N16        -22.3910    26.2110   -10.2220 nb         1 QO4      -0.254500
     19 C18        -21.6560    28.4660   -10.5900 ca         1 QO4      -0.401300
     20 C19        -22.9800    28.8050   -10.9110 ca         1 QO4       0.213400
     21 N20        -23.9650    27.8900   -10.8940 nb         1 QO4      -0.254500
     22 F22        -20.7670    30.4830   -11.5030 f          1 QO4      -0.115000
     23 F23        -20.4250    30.1010    -9.3900 f          1 QO4      -0.115000
     24 F24        -19.3420    28.9640   -10.8940 f          1 QO4      -0.115000
     25 N25        -27.6860    19.9520   -13.0470 nu         1 QO4      -0.795200
     26 C27        -25.6490    21.1470   -13.6530 cd         1 QO4      -0.458400
     27 O29        -23.8440    22.5570   -14.3990 o          1 QO4      -0.554000
     28 N30        -25.9530    23.3440   -14.6160 ns         1 QO4      -0.232900
     29 N31        -27.3210    23.3260   -14.5130 nd         1 QO4      -0.390300
     30 C32        -27.8260    22.2160   -13.9850 cc         1 QO4       0.314500
     31 C33        -24.6240    20.0980   -13.2370 c3         1 QO4       0.390200
     32 F34        -25.1600    18.9870   -12.6840 f          1 QO4      -0.117667
     33 F35        -23.7590    20.5850   -12.3190 f          1 QO4      -0.117667
     34 F36        -23.8920    19.6710   -14.2910 f          1 QO4      -0.117667
     35 H1         -30.9970    22.0500   -10.0440 h1         1 QO4       0.038700
     36 H2         -29.6480    21.2340    -9.2160 h1         1 QO4       0.038700
     37 H3         -29.4950    23.9580   -10.5820 hc         1 QO4       0.070700
     38 H4         -29.6570    23.6940    -8.8260 hc         1 QO4       0.070700
     39 H5         -26.7690    24.8150   -12.2850 h1         1 QO4       0.073200
     40 H6         -28.0610    25.2820   -11.1840 h1         1 QO4       0.073200
     41 H7         -24.6610    24.3450    -8.8400 h1         1 QO4       0.073700
     42 H8         -23.4360    23.9450   -10.0530 h1         1 QO4       0.073700
     43 H9         -20.4130    26.7800    -9.9650 h4         1 QO4       0.036600
     44 H10        -30.4650    17.9920   -13.2750 hc         1 QO4       0.053367
     45 H11        -29.0080    17.9650   -14.2860 hc         1 QO4       0.053367
     46 H12        -28.8990    17.5580   -12.5570 hc         1 QO4       0.053367
     47 H13        -29.6770    20.2770   -13.7240 h1         1 QO4       0.071700
     48 H14        -30.8070    19.9160   -11.5740 h1         1 QO4       0.037700
     49 H15        -29.2790    19.4330   -10.8050 h1         1 QO4       0.037700
     50 H16        -26.2510    26.9460   -11.2710 h1         1 QO4       0.073700
     51 H17        -26.4970    26.3240    -9.6340 h1         1 QO4       0.073700
     52 H18        -25.2590    22.2670   -10.0280 h1         1 QO4       0.073200
     53 H19        -25.0900    23.0650   -11.5900 h1         1 QO4       0.073200
     54 H20        -23.2650    29.8210   -11.1830 h4         1 QO4       0.036600
     55 H21        -27.0670    19.2170   -12.7060 hn         1 QO4       0.511000
     56 H22        -25.5260    24.1730   -15.0190 hn         1 QO4       0.353500
     57 H23        -28.9040    22.2410   -13.9180 h4         1 QO4       0.051800
     58 C21        -20.5450    29.5050   -10.5970 c3         1 QO4       0.382300
     59 C3         -29.7220    20.0830   -11.5710 c3         1 QO4       0.143600
@<TRIPOS>BOND
     1     1     2 1   
     2     1    13 1   
     3     1    35 1   
     4     1    36 1   
     5     2     3 1   
     6     2    37 1   
     7     2    38 1   
     8     3    14 2   
     9     3    15 1   
    10     4    15 1   
    11     4    16 1   
    12     4    39 1   
    13     4    40 1   
    14     5     6 1   
    15     5     7 1   
    16     5    16 1   
    17     6    17 1   
    18     6    41 1   
    19     6    42 1   
    20     7    18 ar  
    21     7    21 ar  
    22     8    18 ar  
    23     8    19 ar  
    24     8    43 1   
    25     9    25 1   
    26     9    26 2   
    27     9    30 1   
    28    10    26 1   
    29    10    27 2   
    30    10    28 1   
    31    11    12 1   
    32    11    44 1   
    33    11    45 1   
    34    11    46 1   
    35    12    25 1   
    36    12    47 1   
    37    12    59 1   
    38    13    59 1   
    39    15    17 1   
    40    16    50 1   
    41    16    51 1   
    42    17    52 1   
    43    17    53 1   
    44    19    20 ar  
    45    19    58 1   
    46    20    21 ar  
    47    20    54 1   
    48    22    58 1   
    49    23    58 1   
    50    24    58 1   
    51    25    55 1   
    52    26    31 1   
    53    28    29 1   
    54    28    56 1   
    55    29    30 2   
    56    30    57 1   
    57    31    32 1   
    58    31    33 1   
    59    31    34 1   
    60    48    59 1   
    61    49    59 1   
@<TRIPOS>SUBSTRUCTURE
     1 QO4         1 TEMP              0 ****  ****    0 ROOT
