@<TRIPOS>MOLECULE
QO4
   59    61     1     0     0
SMALL
abcg2


@<TRIPOS>ATOM
      1 C5         -29.5470    22.1860   -10.4140 c3         1 QO4       0.179600
      2 C6         -28.6610    23.3960   -10.6020 c3         1 QO4      -0.165400
      3 C7         -27.1980    23.0140   -10.7590 c          1 QO4       0.609100
      4 C10        -26.6670    25.3870   -11.3070 c6         1 QO4       0.072500
      5 N12        -24.5380    25.8840   -10.2150 nh         1 QO4      -0.761300
      6 C13        -24.2030    24.4710   -10.1720 c6         1 QO4       0.196800
      7 C15        -23.6080    26.8540   -10.1920 ca         1 QO4       0.416900
      8 C17        -21.4160    27.4410   -10.1480 ca         1 QO4       0.213400
      9 C26        -27.3290    20.5700   -13.5100 cc         1 QO4       0.236400
     10 C28        -25.3130    21.8070   -14.1720 c          1 QO4       0.575200
     11 C1         -29.8300    17.9570   -12.7930 c3         1 QO4      -0.110100
     12 C2         -29.4590    19.4310   -12.8220 c3         1 QO4       0.233500
     13 O4         -29.5720    21.4760   -11.6280 os         1 QO4      -0.469000
     14 O8         -26.8070    21.8920   -10.4800 o          1 QO4      -0.593100
     15 N9         -26.3550    23.9750   -11.2150 n          1 QO4      -0.409800
     16 C11        -25.9620    26.1620   -10.2010 c6         1 QO4       0.196800
     17 C14        -24.9280    23.7300   -11.2860 c6         1 QO4       0.072500
     18 N16        -22.3170    26.4850   -10.1670 nb         1 QO4      -0.254500
     19 C18        -21.7500    28.7910   -10.1550 ca         1 QO4      -0.401300
     20 C19        -23.1120    29.0690   -10.1760 ca         1 QO4       0.213400
     21 N20        -24.0300    28.1300   -10.1950 nb         1 QO4      -0.254500
     22 F22        -21.1480    31.0000   -10.6480 f          1 QO4      -0.115000
     23 F23        -20.3630    30.1580    -8.8340 f          1 QO4      -0.115000
     24 F24        -19.5950    29.5040   -10.7300 f          1 QO4      -0.115000
     25 N25        -28.0190    19.5440   -13.0040 nu         1 QO4      -0.795200
     26 C27        -25.9400    20.6750   -13.5480 cd         1 QO4      -0.458400
     27 O29        -24.1030    21.9900   -14.2750 o          1 QO4      -0.554000
     28 N30        -26.1820    22.7430   -14.6820 ns         1 QO4      -0.232900
     29 N31        -27.4960    22.6730   -14.6790 nd         1 QO4      -0.390300
     30 C32        -28.0560    21.6570   -14.1340 cc         1 QO4       0.314500
     31 C33        -24.9720    19.6880   -12.9900 c3         1 QO4       0.390200
     32 F34        -25.5610    18.6510   -12.3630 f          1 QO4      -0.117667
     33 F35        -24.1390    20.2240   -12.0880 f          1 QO4      -0.117667
     34 F36        -24.1970    19.1420   -13.9400 f          1 QO4      -0.117667
     35 H1         -30.5560    22.5120   -10.1320 h1         1 QO4       0.038700
     36 H2         -29.1690    21.5600    -9.5980 h1         1 QO4       0.038700
     37 H3         -29.0140    23.9690   -11.4620 hc         1 QO4       0.070700
     38 H4         -28.7660    24.0540    -9.7340 hc         1 QO4       0.070700
     39 H5         -26.3380    25.7590   -12.2820 h1         1 QO4       0.073200
     40 H6         -27.7360    25.5650   -11.2380 h1         1 QO4       0.073200
     41 H7         -24.4980    24.0590    -9.2010 h1         1 QO4       0.073700
     42 H8         -23.1300    24.3470   -10.2780 h1         1 QO4       0.073700
     43 H9         -20.3810    27.1170   -10.1290 h4         1 QO4       0.036600
     44 H10        -30.9050    17.8400   -12.6630 hc         1 QO4       0.053367
     45 H11        -29.5460    17.4670   -13.7230 hc         1 QO4       0.053367
     46 H12        -29.3370    17.4400   -11.9670 hc         1 QO4       0.053367
     47 H13        -29.9700    19.8900   -13.6700 h1         1 QO4       0.071700
     48 H14        -30.9750    19.9680   -11.3920 h1         1 QO4       0.037700
     49 H15        -29.3840    19.6480   -10.6860 h1         1 QO4       0.037700
     50 H16        -26.1290    27.2270   -10.3310 h1         1 QO4       0.073700
     51 H17        -26.3780    25.8700    -9.2300 h1         1 QO4       0.073700
     52 H18        -24.7300    22.6650   -11.2190 h1         1 QO4       0.073200
     53 H19        -24.5590    24.0790   -12.2540 h1         1 QO4       0.073200
     54 H20        -23.4780    30.0910   -10.1800 h4         1 QO4       0.036600
     55 H21        -27.4940    18.8220   -12.5410 hn         1 QO4       0.511000
     56 H22        -25.7920    23.5610   -15.1270 hn         1 QO4       0.353500
     57 H23        -29.1330    21.6580   -14.1640 h4         1 QO4       0.051800
     58 C21        -20.7210    29.8570   -10.0940 c3         1 QO4       0.382300
     59 C3         -29.8960    20.1210   -11.5360 c3         1 QO4       0.143600
@<TRIPOS>BOND
     1     1     2 1   
     2     1    13 1   
     3     1    35 1   
     4     1    36 1   
     5     2     3 1   
     6     2    37 1   
     7     2    38 1   
     8     3    14 2   
     9     3    15 1   
    10     4    15 1   
    11     4    16 1   
    12     4    39 1   
    13     4    40 1   
    14     5     6 1   
    15     5     7 1   
    16     5    16 1   
    17     6    17 1   
    18     6    41 1   
    19     6    42 1   
    20     7    18 ar  
    21     7    21 ar  
    22     8    18 ar  
    23     8    19 ar  
    24     8    43 1   
    25     9    25 1   
    26     9    26 2   
    27     9    30 1   
    28    10    26 1   
    29    10    27 2   
    30    10    28 1   
    31    11    12 1   
    32    11    44 1   
    33    11    45 1   
    34    11    46 1   
    35    12    25 1   
    36    12    47 1   
    37    12    59 1   
    38    13    59 1   
    39    15    17 1   
    40    16    50 1   
    41    16    51 1   
    42    17    52 1   
    43    17    53 1   
    44    19    20 ar  
    45    19    58 1   
    46    20    21 ar  
    47    20    54 1   
    48    22    58 1   
    49    23    58 1   
    50    24    58 1   
    51    25    55 1   
    52    26    31 1   
    53    28    29 1   
    54    28    56 1   
    55    29    30 2   
    56    30    57 1   
    57    31    32 1   
    58    31    33 1   
    59    31    34 1   
    60    48    59 1   
    61    49    59 1   
@<TRIPOS>SUBSTRUCTURE
     1 QO4         1 TEMP              0 ****  ****    0 ROOT
