@<TRIPOS>MOLECULE
QO5
   31    31     1     0     0
SMALL
No Charge or Current Charge


@<TRIPOS>ATOM
      1 C11         23.8670    65.9250    83.5340 c3         1 QO5      -0.040800
      2 N           27.6310    65.1240    83.8910 n8         1 QO5      -1.003200
      3 CA          27.5300    65.0220    82.3820 c3         1 QO5       0.014500
      4 CB          27.6250    66.4220    81.7150 c3         1 QO5       0.135600
      5 SG          26.2290    67.5450    82.2300 ss         1 QO5      -0.335000
      6 C           28.5180    64.0020    81.6810 c          1 QO5       0.728000
      7 O           29.5340    64.4260    81.1420 o          1 QO5      -0.721000
      8 C1          23.8030    66.1490    82.0270 ca         1 QO5      -0.024300
      9 C2          24.8080    66.8770    81.3500 ca         1 QO5      -0.136000
     10 C3          24.6940    67.0870    79.9620 ca         1 QO5       0.091100
     11 O3          25.6380    67.8390    79.3190 oh         1 QO5      -0.567100
     12 C4          23.6080    66.5540    79.2400 ca         1 QO5       0.094100
     13 O4          23.5370    66.7820    77.8920 oh         1 QO5      -0.547100
     14 C5          22.6130    65.8090    79.9060 ca         1 QO5      -0.072300
     15 C6          22.7190    65.6190    81.2980 ca         1 QO5      -0.131000
     16 C51         21.4280    65.2230    79.1450 c3         1 QO5      -0.029800
     17 H1          24.6710    65.2280    83.7940 hc         1 QO5       0.044367
     18 H2          24.0430    66.8650    84.0700 hc         1 QO5       0.044367
     19 H3          22.9320    65.5030    83.9220 hc         1 QO5       0.044367
     20 H7          26.5200    64.6450    82.1740 h1         1 QO5       0.007700
     21 H8          27.6050    66.3100    80.6230 h1         1 QO5       0.079700
     22 H9          28.5790    66.8910    81.9880 h1         1 QO5       0.079700
     23 H11         26.2150    68.2160    80.0200 ho         1 QO5       0.497000
     24 H12         24.3290    67.3230    77.6700 ho         1 QO5       0.476000
     25 H13         21.9500    65.0530    81.8190 ha         1 QO5       0.105000
     26 H14         21.7660    64.5370    78.3590 hc         1 QO5       0.036700
     27 H15         20.7550    64.6620    79.8050 hc         1 QO5       0.036700
     28 H16         20.8380    66.0150    78.6680 hc         1 QO5       0.036700
     29 OXT         28.2210    62.8140    81.6970 o          1 QO5      -0.721000
     30 H4          26.9060    65.7710    84.2210 hn         1 QO5       0.389000
     31 H5          27.3690    64.2210    84.3070 hn         1 QO5       0.389000
@<TRIPOS>BOND
     1     1     8 1   
     2     1    17 1   
     3     1    18 1   
     4     1    19 1   
     5     2     3 1   
     6     2    30 1   
     7     2    31 1   
     8     3     4 1   
     9     3     6 1   
    10     3    20 1   
    11     4     5 1   
    12     4    21 1   
    13     4    22 1   
    14     5     9 1   
    15     6     7 1   
    16     6    29 1   
    17     8     9 ar  
    18     8    15 ar  
    19     9    10 ar  
    20    10    11 1   
    21    10    12 ar  
    22    11    23 1   
    23    12    13 1   
    24    12    14 ar  
    25    13    24 1   
    26    14    15 ar  
    27    14    16 1   
    28    15    25 1   
    29    16    26 1   
    30    16    27 1   
    31    16    28 1   
@<TRIPOS>SUBSTRUCTURE
     1 QO5         1 TEMP              0 ****  ****    0 ROOT
