@<TRIPOS>MOLECULE
QO5
   31    31     1     0     0
SMALL
bcc


@<TRIPOS>ATOM
      1 C11         23.9080    65.7890    83.4600 c3         1 QO5      -0.040800
      2 N           27.6400    65.2280    83.8710 n8         1 QO5      -0.892800
      3 CA          27.4600    65.0020    82.4470 c3         1 QO5       0.014500
      4 CB          27.5400    66.3190    81.6990 c3         1 QO5       0.087700
      5 SG          26.2270    67.5120    82.1740 ss         1 QO5      -0.414000
      6 C           28.5130    63.9880    81.9120 c          1 QO5       0.938600
      7 O           28.7630    64.0390    80.6930 o          1 QO5      -0.826300
      8 C1          23.8340    66.0920    81.9920 ca         1 QO5      -0.024300
      9 C2          24.8200    66.8370    81.3340 ca         1 QO5      -0.009100
     10 C3          24.6890    67.1230    79.9730 ca         1 QO5       0.091100
     11 O3          25.5810    67.8640    79.2870 oh         1 QO5      -0.528100
     12 C4          23.6010    66.6390    79.2440 ca         1 QO5       0.094100
     13 O4          23.4680    66.8980    77.9230 oh         1 QO5      -0.508100
     14 C5          22.6250    65.8820    79.8790 ca         1 QO5      -0.072300
     15 C6          22.7590    65.6300    81.2430 ca         1 QO5      -0.149000
     16 C51         21.4500    65.3640    79.1060 c3         1 QO5      -0.029800
     17 H1          24.7460    65.1320    83.6990 hc         1 QO5       0.044367
     18 H2          24.0290    66.6920    84.0590 hc         1 QO5       0.044367
     19 H3          23.0000    65.2880    83.7920 hc         1 QO5       0.044367
     20 H7          26.4800    64.5520    82.2080 h1         1 QO5       0.007700
     21 H8          27.4900    66.1690    80.6240 h1         1 QO5       0.079700
     22 H9          28.4760    66.8320    81.9300 h1         1 QO5       0.079700
     23 H11         26.1990    68.2780    79.9130 ho         1 QO5       0.458000
     24 H12         24.1870    67.4640    77.6190 ho         1 QO5       0.437000
     25 H13         21.9890    65.0490    81.7380 ha         1 QO5       0.123000
     26 H14         21.7610    64.7300    78.2730 hc         1 QO5       0.036700
     27 H15         20.7950    64.7750    79.7460 hc         1 QO5       0.036700
     28 H16         20.8570    66.1760    78.6820 hc         1 QO5       0.036700
     29 OXT         28.9780    63.1850    82.7420 o          1 QO5      -0.826300
     30 H4          26.7910    65.5950    84.2790 hn         1 QO5       0.333800
     31 H5          27.8250    64.3370    84.3110 hn         1 QO5       0.333800
@<TRIPOS>BOND
     1     1     8 1   
     2     1    17 1   
     3     1    18 1   
     4     1    19 1   
     5     2     3 1   
     6     2    30 1   
     7     2    31 1   
     8     3     4 1   
     9     3     6 1   
    10     3    20 1   
    11     4     5 1   
    12     4    21 1   
    13     4    22 1   
    14     5     9 1   
    15     6     7 1   
    16     6    29 1   
    17     8     9 ar  
    18     8    15 ar  
    19     9    10 ar  
    20    10    11 1   
    21    10    12 ar  
    22    11    23 1   
    23    12    13 1   
    24    12    14 ar  
    25    13    24 1   
    26    14    15 ar  
    27    14    16 1   
    28    15    25 1   
    29    16    26 1   
    30    16    27 1   
    31    16    28 1   
@<TRIPOS>SUBSTRUCTURE
     1 QO5         1 TEMP              0 ****  ****    0 ROOT
