@<TRIPOS>MOLECULE
QO6
   26    27     1     0     0
SMALL
abcg2


@<TRIPOS>ATOM
      1 O13         18.6530   -12.4660     0.7730 o          1 QO6      -0.591100
      2 C11         18.0360   -13.4020     0.2680 c          1 QO6       0.602100
      3 C12         18.4010   -13.9330    -1.0990 c3         1 QO6      -0.177100
      4 N10         16.9980   -14.0400     0.8720 ns         1 QO6      -0.147000
      5 C7          16.4070   -13.8100     2.1300 ca         1 QO6      -0.024000
      6 C3          16.9100   -12.9010     3.0680 ca         1 QO6      -0.117000
      7 C9          15.2550   -14.5520     2.4270 ca         1 QO6      -0.169000
      8 C5          14.6030   -14.3970     3.6440 ca         1 QO6      -0.070000
      9 C2          15.0980   -13.4920     4.5740 ca         1 QO6      -0.114300
     10 C6          14.5920   -13.1590     5.9570 c5         1 QO6      -0.028100
     11 C8          15.3200   -11.8360     6.2860 c5         1 QO6      -0.078400
     12 C4          16.6130   -11.8640     5.4390 c5         1 QO6      -0.034100
     13 C1          16.2440   -12.7550     4.2780 ca         1 QO6      -0.062300
     14 H2          18.4040   -13.1040    -1.8070 hc         1 QO6       0.063367
     15 H3          19.4150   -14.3350    -1.0560 hc         1 QO6       0.063367
     16 H1          17.7270   -14.7100    -1.4580 hc         1 QO6       0.063367
     17 H4          16.5680   -14.7780     0.3350 hn         1 QO6       0.147000
     18 H5          17.7930   -12.3270     2.8430 ha         1 QO6       0.151000
     19 H7          14.8720   -15.2480     1.6910 ha         1 QO6       0.107000
     20 H8          13.7130   -14.9790     3.8520 ha         1 QO6       0.113000
     21 H10         13.5060   -13.0680     6.0050 hc         1 QO6       0.050200
     22 H102        14.8780   -13.9480     6.6620 hc         1 QO6       0.050200
     23 H11         15.5170   -11.7160     7.3510 hc         1 QO6       0.045700
     24 H092        14.7000   -10.9960     5.9660 hc         1 QO6       0.045700
     25 H12         17.4390   -12.3130     6.0030 hc         1 QO6       0.055700
     26 H13         16.9400   -10.8710     5.1290 hc         1 QO6       0.055700
@<TRIPOS>BOND
     1     1     2 2   
     2     2     3 1   
     3     2     4 1   
     4     3    14 1   
     5     3    15 1   
     6     3    16 1   
     7     4     5 1   
     8     4    17 1   
     9     5     6 ar  
    10     5     7 ar  
    11     6    13 ar  
    12     6    18 1   
    13     7     8 ar  
    14     7    19 1   
    15     8     9 ar  
    16     8    20 1   
    17     9    10 1   
    18     9    13 ar  
    19    10    11 1   
    20    10    21 1   
    21    10    22 1   
    22    11    12 1   
    23    11    23 1   
    24    11    24 1   
    25    12    13 1   
    26    12    25 1   
    27    12    26 1   
@<TRIPOS>SUBSTRUCTURE
     1 QO6         1 TEMP              0 ****  ****    0 ROOT
