@<TRIPOS>MOLECULE
QO6
   26    27     1     0     0
SMALL
No Charge or Current Charge


@<TRIPOS>ATOM
      1 O13         18.7720   -12.4610     0.7020 o          1 QO6      -0.591100
      2 C11         18.1010   -13.3680     0.2210 c          1 QO6       0.602100
      3 C12         18.3930   -13.9150    -1.1730 c3         1 QO6      -0.177100
      4 N10         17.0340   -13.9860     0.8590 ns         1 QO6      -0.147000
      5 C7          16.4370   -13.7940     2.1360 ca         1 QO6      -0.024000
      6 C3          16.8930   -12.8390     3.0770 ca         1 QO6      -0.117000
      7 C9          15.3320   -14.6100     2.4670 ca         1 QO6      -0.169000
      8 C5          14.6870   -14.4830     3.7120 ca         1 QO6      -0.070000
      9 C2          15.1570   -13.5270     4.6230 ca         1 QO6      -0.114300
     10 C6          14.6140   -13.2440     5.9980 c5         1 QO6      -0.028100
     11 C8          15.2470   -11.8270     6.2740 c5         1 QO6      -0.078400
     12 C4          16.5790   -11.7800     5.4330 c5         1 QO6      -0.034100
     13 C1          16.2340   -12.7250     4.3120 ca         1 QO6      -0.062300
     14 H2          19.2380   -13.4130    -1.6570 hc         1 QO6       0.063367
     15 H3          18.5490   -14.9980    -1.1060 hc         1 QO6       0.063367
     16 H1          17.4820   -13.8500    -1.7800 hc         1 QO6       0.063367
     17 H4          16.5940   -14.7140     0.3110 hn         1 QO6       0.147000
     18 H5          17.7390   -12.1900     2.8750 ha         1 QO6       0.151000
     19 H7          14.9700   -15.3490     1.7560 ha         1 QO6       0.107000
     20 H8          13.8390   -15.1160     3.9630 ha         1 QO6       0.113000
     21 H10         13.5190   -13.2230     6.0340 hc         1 QO6       0.050200
     22 H102        14.9580   -13.9890     6.7250 hc         1 QO6       0.050200
     23 H11         15.4190   -11.6470     7.3410 hc         1 QO6       0.045700
     24 H092        14.5630   -11.0420     5.9300 hc         1 QO6       0.045700
     25 H12         17.4360   -12.1440     6.0120 hc         1 QO6       0.055700
     26 H13         16.8150   -10.7670     5.0870 hc         1 QO6       0.055700
@<TRIPOS>BOND
     1     1     2 2   
     2     2     3 1   
     3     2     4 1   
     4     3    14 1   
     5     3    15 1   
     6     3    16 1   
     7     4     5 1   
     8     4    17 1   
     9     5     6 ar  
    10     5     7 ar  
    11     6    13 ar  
    12     6    18 1   
    13     7     8 ar  
    14     7    19 1   
    15     8     9 ar  
    16     8    20 1   
    17     9    10 1   
    18     9    13 ar  
    19    10    11 1   
    20    10    21 1   
    21    10    22 1   
    22    11    12 1   
    23    11    23 1   
    24    11    24 1   
    25    12    13 1   
    26    12    25 1   
    27    12    26 1   
@<TRIPOS>SUBSTRUCTURE
     1 QO6         1 TEMP              0 ****  ****    0 ROOT
