@<TRIPOS>MOLECULE
QO7
   42    44     1     0     0
SMALL
bcc


@<TRIPOS>ATOM
      1 C13         65.4470   -25.0140     6.3120 ca         1 QO7       0.183600
      2 C14         66.3090   -25.9680     6.8570 ca         1 QO7       0.053900
      3 C15         66.8900   -25.8480     8.0980 ca         1 QO7      -0.098000
      4 C16         66.6070   -24.7180     8.8510 ca         1 QO7      -0.048900
      5 C17         65.7540   -23.7440     8.3580 ca         1 QO7      -0.072000
      6 C18         65.1810   -23.8970     7.1050 ca         1 QO7      -0.169000
      7 C03         63.7020   -20.3990     2.0810 cc         1 QO7       0.424700
      8 C05         64.2780   -22.0820     3.2130 ca         1 QO7       0.041400
      9 C06         62.9540   -22.3140     2.8110 ca         1 QO7      -0.074200
     10 C07         62.2540   -23.4700     3.1350 ca         1 QO7      -0.100000
     11 C08         62.9150   -24.3920     3.9250 ca         1 QO7      -0.101600
     12 C09         64.2500   -24.2090     4.3360 ca         1 QO7       0.094600
     13 C10         64.9210   -23.0600     3.9600 ca         1 QO7       0.181900
     14 C25         61.2650   -24.0010     6.8420 c3         1 QO7       0.101400
     15 C26         60.1210   -24.6140     7.6310 c3         1 QO7       0.109400
     16 F11         66.1950   -22.8880     4.3140 f          1 QO7      -0.108900
     17 F20         66.5770   -27.0630     6.1200 f          1 QO7      -0.151900
     18 N02         62.6140   -21.2060     2.0850 na         1 QO7      -0.142300
     19 N04         64.7210   -20.8770     2.7400 nd         1 QO7      -0.546100
     20 N12         64.8920   -25.2180     5.0730 nu         1 QO7      -0.654000
     21 N23         61.8240   -25.8270     5.5360 ns         1 QO7      -0.438400
     22 O22         61.9550   -26.5040     3.4040 o          1 QO7      -0.576100
     23 O24         62.2570   -24.9630     6.4960 os         1 QO7      -0.190900
     24 O27         59.2520   -23.5580     7.9690 oh         1 QO7      -0.597800
     25 BR19        67.3930   -24.5150    10.5550 br         1 QO7      -0.096100
     26 H1          67.5500   -26.6290     8.4520 ha         1 QO7       0.161000
     27 H2          65.5180   -22.8620     8.9380 ha         1 QO7       0.148000
     28 H3          64.5060   -23.1300     6.7500 ha         1 QO7       0.143000
     29 H4          61.1510   -21.7200     0.6820 h1         1 QO7       0.057033
     30 H5          60.5370   -20.9730     2.1700 h1         1 QO7       0.057033
     31 H6          61.3700   -19.9880     0.9620 h1         1 QO7       0.057033
     32 H7          63.6890   -19.4500     1.5650 h5         1 QO7       0.067800
     33 H8          61.2360   -23.6380     2.8070 ha         1 QO7       0.154000
     34 H9          61.7970   -23.2670     7.4490 h1         1 QO7       0.070700
     35 H10         60.8900   -23.4970     5.9450 h1         1 QO7       0.070700
     36 H11         59.6140   -25.3750     7.0240 h1         1 QO7       0.028700
     37 H12         60.5230   -25.1180     8.5200 h1         1 QO7       0.028700
     38 H13         65.2080   -26.0230     4.5540 hn         1 QO7       0.457800
     39 H14         61.5070   -26.7280     5.8730 hn         1 QO7       0.340500
     40 H15         58.5040   -23.9250     8.4480 ho         1 QO7       0.411000
     41 C21         62.2140   -25.6740     4.2570 c          1 QO7       0.688700
     42 C01         61.3440   -20.9630     1.4400 c3         1 QO7       0.033600
@<TRIPOS>BOND
     1     1     2 ar  
     2     1     6 ar  
     3     1    20 1   
     4     2     3 ar  
     5     2    17 1   
     6     3     4 ar  
     7     3    26 1   
     8     4     5 ar  
     9     4    25 1   
    10     5     6 ar  
    11     5    27 1   
    12     6    28 1   
    13     7    18 1   
    14     7    19 2   
    15     7    32 1   
    16     8     9 ar  
    17     8    13 ar  
    18     8    19 1   
    19     9    10 ar  
    20     9    18 1   
    21    10    11 ar  
    22    10    33 1   
    23    11    12 ar  
    24    11    41 1   
    25    12    13 ar  
    26    12    20 1   
    27    13    16 1   
    28    14    15 1   
    29    14    23 1   
    30    14    34 1   
    31    14    35 1   
    32    15    24 1   
    33    15    36 1   
    34    15    37 1   
    35    18    42 1   
    36    20    38 1   
    37    21    23 1   
    38    21    39 1   
    39    21    41 1   
    40    22    41 2   
    41    24    40 1   
    42    29    42 1   
    43    30    42 1   
    44    31    42 1   
@<TRIPOS>SUBSTRUCTURE
     1 QO7         1 TEMP              0 ****  ****    0 ROOT
