@<TRIPOS>MOLECULE
QO7
   42    44     1     0     0
SMALL
No Charge or Current Charge


@<TRIPOS>ATOM
      1 C13         65.6100   -24.9680     6.4560 ca         1 QO7       0.322000
      2 C14         66.3500   -26.0880     6.9110 ca         1 QO7       0.089000
      3 C15         67.0860   -26.0210     8.1050 ca         1 QO7      -0.080000
      4 C16         67.0810   -24.8380     8.8630 ca         1 QO7      -0.048900
      5 C17         66.3370   -23.7280     8.4330 ca         1 QO7      -0.054000
      6 C18         65.6000   -23.7960     7.2360 ca         1 QO7      -0.151000
      7 C03         63.6670   -20.2690     1.9950 cc         1 QO7       0.424700
      8 C05         64.2070   -21.9480     3.2610 ca         1 QO7       0.041400
      9 C06         62.9610   -22.2260     2.7840 ca         1 QO7      -0.074200
     10 C07         62.2710   -23.3990     3.1050 ca         1 QO7      -0.082000
     11 C08         62.8830   -24.3260     3.9830 ca         1 QO7      -0.101600
     12 C09         64.1970   -24.0710     4.4850 ca         1 QO7       0.233000
     13 C10         64.8600   -22.8600     4.1100 ca         1 QO7       0.217000
     14 C25         61.0920   -23.9820     6.8050 c3         1 QO7       0.124600
     15 C26         59.8720   -24.6850     7.4480 c3         1 QO7       0.132600
     16 F11         66.1290   -22.5980     4.5160 f          1 QO7      -0.144000
     17 F20         66.3580   -27.2420     6.1980 f          1 QO7      -0.187000
     18 N02         62.6070   -21.1770     1.9880 na         1 QO7      -0.171600
     19 N04         64.6750   -20.7200     2.7730 nd         1 QO7      -0.546100
     20 N12         64.8580   -25.0450     5.2710 nu         1 QO7      -0.986000
     21 N23         61.9570   -25.9270     5.6630 ns         1 QO7      -0.371400
     22 O22         61.5940   -26.2630     3.4600 o          1 QO7      -0.576100
     23 O24         62.1810   -24.9240     6.6820 os         1 QO7      -0.214100
     24 O27         58.8160   -23.7390     7.6790 oh         1 QO7      -0.660000
     25 Br19        68.0800   -24.7450    10.4910 br         1 QO7      -0.096100
     26 H1          67.6550   -26.8850     8.4410 ha         1 QO7       0.143000
     27 H2          66.3250   -22.8160     9.0270 ha         1 QO7       0.130000
     28 H3          65.0120   -22.9380     6.9260 ha         1 QO7       0.125000
     29 H4          61.2210   -21.9340     0.5880 h1         1 QO7       0.057033
     30 H5          60.4980   -21.1120     2.0050 h1         1 QO7       0.057033
     31 H6          61.2730   -20.1510     0.7110 h1         1 QO7       0.057033
     32 H7          63.6450   -19.3410     1.4370 h5         1 QO7       0.067800
     33 H8          61.2760   -23.5870     2.7040 ha         1 QO7       0.136000
     34 H9          61.3980   -23.1500     7.4520 h1         1 QO7       0.070700
     35 H10         60.8140   -23.5630     5.8300 h1         1 QO7       0.070700
     36 H11         59.5200   -25.4860     6.7850 h1         1 QO7       0.028700
     37 H12         60.1830   -25.1430     8.3960 h1         1 QO7       0.028700
     38 H13         64.6640   -26.0120     5.0010 hn         1 QO7       0.513000
     39 H14         61.3820   -26.7190     5.9300 hn         1 QO7       0.340500
     40 H15         58.0730   -24.2310     8.0980 ho         1 QO7       0.450000
     41 C21         62.0980   -25.5670     4.3310 c          1 QO7       0.621700
     42 C01         61.3210   -21.0880     1.2800 c3         1 QO7       0.062900
@<TRIPOS>BOND
     1     1     2 ar  
     2     1     6 ar  
     3     1    20 1   
     4     2     3 ar  
     5     2    17 1   
     6     3     4 ar  
     7     3    26 1   
     8     4     5 ar  
     9     4    25 1   
    10     5     6 ar  
    11     5    27 1   
    12     6    28 1   
    13     7    18 1   
    14     7    19 2   
    15     7    32 1   
    16     8     9 ar  
    17     8    13 ar  
    18     8    19 1   
    19     9    10 ar  
    20     9    18 1   
    21    10    11 ar  
    22    10    33 1   
    23    11    12 ar  
    24    11    41 1   
    25    12    13 ar  
    26    12    20 1   
    27    13    16 1   
    28    14    15 1   
    29    14    23 1   
    30    14    34 1   
    31    14    35 1   
    32    15    24 1   
    33    15    36 1   
    34    15    37 1   
    35    18    42 1   
    36    20    38 1   
    37    21    23 1   
    38    21    39 1   
    39    21    41 1   
    40    22    41 2   
    41    24    40 1   
    42    29    42 1   
    43    30    42 1   
    44    31    42 1   
@<TRIPOS>SUBSTRUCTURE
     1 QO7         1 TEMP              0 ****  ****    0 ROOT
