@<TRIPOS>MOLECULE
QO8
   34    34     1     0     0
SMALL
No Charge or Current Charge


@<TRIPOS>ATOM
      1 C1          24.0270    65.5940    82.3710 ca         1 QO8      -0.066000
      2 C           28.6890    64.1640    81.6680 c3         1 QO8       0.391300
      3 C2          24.7130    66.5580    81.6180 ca         1 QO8      -0.201000
      4 C3          24.3210    66.8120    80.2940 ca         1 QO8       0.154100
      5 O           28.7630    62.8860    82.2840 oh         1 QO8      -0.662500
      6 O3          24.9810    67.7830    79.5930 oh         1 QO8      -0.512100
      7 C4          23.2550    66.0820    79.7110 ca         1 QO8       0.097100
      8 C5          22.5770    65.0870    80.4630 ca         1 QO8      -0.111300
      9 C6          22.9630    64.8590    81.8110 ca         1 QO8      -0.082300
     10 C7          22.2520    63.8320    82.6900 c3         1 QO8      -0.042800
     11 N           27.8740    65.1440    83.9010 n8         1 QO8      -0.981200
     12 CA          27.6460    65.0830    82.4210 c3         1 QO8       0.187500
     13 CB          27.5660    66.5000    81.7950 c3         1 QO8       0.053600
     14 SG          26.0750    67.4500    82.3680 ss         1 QO8      -0.219000
     15 C51         21.4290    64.2870    79.8290 c3         1 QO8      -0.058800
     16 H1          24.3260    65.4140    83.4010 ha         1 QO8       0.122000
     17 H2          28.3910    64.0460    80.6190 h2         1 QO8       0.008700
     18 H4          29.0780    62.2670    81.5940 ho         1 QO8       0.439500
     19 H5          25.5940    68.2140    80.2240 ho         1 QO8       0.479000
     20 H7          22.4620    62.8100    82.3500 hc         1 QO8       0.042700
     21 H8          22.5710    63.8990    83.7370 hc         1 QO8       0.042700
     22 H9          21.1660    63.9800    82.6760 hc         1 QO8       0.042700
     23 H10         26.9650    65.1870    84.3720 hn         1 QO8       0.407000
     24 H11         28.2510    64.2290    84.1750 hn         1 QO8       0.407000
     25 H13         26.6720    64.5980    82.2720 h1         1 QO8       0.033700
     26 H14         27.5210    66.4140    80.7020 h1         1 QO8       0.084200
     27 H15         28.4710    67.0640    82.0540 h1         1 QO8       0.084200
     28 H16         21.6030    64.0870    78.7650 hc         1 QO8       0.046367
     29 H17         21.2950    63.3030    80.2930 hc         1 QO8       0.046367
     30 H18         20.4790    64.8270    79.9210 hc         1 QO8       0.046367
     31 H3          30.4700    64.3710    80.9280 ho         1 QO8       0.439500
     32 O4          22.8710    66.3520    78.4190 oh         1 QO8      -0.519100
     33 OXT         30.0030    64.7010    81.7240 oh         1 QO8      -0.662500
     34 H6          22.0860    65.8060    78.2090 ho         1 QO8       0.462000
@<TRIPOS>BOND
     1     1     3 ar  
     2     1     9 ar  
     3     1    16 1   
     4     2     5 1   
     5     2    12 1   
     6     2    17 1   
     7     2    33 1   
     8     3     4 ar  
     9     3    14 1   
    10     4     6 1   
    11     4     7 ar  
    12     5    18 1   
    13     6    19 1   
    14     7     8 ar  
    15     7    32 1   
    16     8     9 ar  
    17     8    15 1   
    18     9    10 1   
    19    10    20 1   
    20    10    21 1   
    21    10    22 1   
    22    11    12 1   
    23    11    23 1   
    24    11    24 1   
    25    12    13 1   
    26    12    25 1   
    27    13    14 1   
    28    13    26 1   
    29    13    27 1   
    30    15    28 1   
    31    15    29 1   
    32    15    30 1   
    33    31    33 1   
    34    32    34 1   
@<TRIPOS>SUBSTRUCTURE
     1 QO8         1 TEMP              0 ****  ****    0 ROOT
