@<TRIPOS>MOLECULE
QO8
   34    34     1     0     0
SMALL
abcg2


@<TRIPOS>ATOM
      1 C1          24.0850    65.5080    82.3860 ca         1 QO8      -0.066000
      2 C           28.7200    64.2090    81.6450 c3         1 QO8       0.391300
      3 C2          24.7580    66.4720    81.6390 ca         1 QO8      -0.201000
      4 C3          24.3420    66.7640    80.3450 ca         1 QO8       0.154100
      5 O           28.6850    62.9100    82.1670 oh         1 QO8      -0.662500
      6 O3          24.9280    67.6910    79.5680 oh         1 QO8      -0.512100
      7 C4          23.2590    66.0590    79.8070 ca         1 QO8       0.097100
      8 C5          22.5920    65.0870    80.5490 ca         1 QO8      -0.111300
      9 C6          23.0090    64.8100    81.8620 ca         1 QO8      -0.082300
     10 C7          22.3120    63.7790    82.7050 c3         1 QO8      -0.042800
     11 N           27.7330    65.0220    83.7380 n8         1 QO8      -0.981200
     12 CA          27.5760    64.9850    82.2950 c3         1 QO8       0.187500
     13 CB          27.5400    66.3970    81.7320 c3         1 QO8       0.053600
     14 SG          26.1150    67.3770    82.3230 ss         1 QO8      -0.219000
     15 C51         21.4340    64.3710    79.9100 c3         1 QO8      -0.058800
     16 H1          24.4180    65.3040    83.3960 ha         1 QO8       0.122000
     17 H2          28.5420    64.1810    80.5600 h2         1 QO8       0.008700
     18 H4          29.2600    62.3430    81.6440 ho         1 QO8       0.439500
     19 H5          25.5840    68.1690    80.1000 ho         1 QO8       0.479000
     20 H7          22.3550    62.7850    82.2570 hc         1 QO8       0.042700
     21 H8          22.7730    63.7130    83.6900 hc         1 QO8       0.042700
     22 H9          21.2570    64.0190    82.8530 hc         1 QO8       0.042700
     23 H10         26.9810    65.5720    84.1360 hn         1 QO8       0.407000
     24 H11         27.6210    64.0900    84.1160 hn         1 QO8       0.407000
     25 H13         26.6540    64.4790    81.9720 h1         1 QO8       0.033700
     26 H14         27.5210    66.3820    80.6420 h1         1 QO8       0.084200
     27 H15         28.4170    66.9630    82.0480 h1         1 QO8       0.084200
     28 H16         21.7330    63.8470    78.9980 hc         1 QO8       0.046367
     29 H17         21.0010    63.6250    80.5700 hc         1 QO8       0.046367
     30 H18         20.6270    65.0590    79.6440 hc         1 QO8       0.046367
     31 H3          30.5770    64.5960    81.2520 ho         1 QO8       0.439500
     32 O4          22.9130    66.3910    78.5430 oh         1 QO8      -0.519100
     33 OXT         29.9280    64.8560    81.9140 oh         1 QO8      -0.662500
     34 H6          22.1560    65.8740    78.2480 ho         1 QO8       0.462000
@<TRIPOS>BOND
     1     1     3 ar  
     2     1     9 ar  
     3     1    16 1   
     4     2     5 1   
     5     2    12 1   
     6     2    17 1   
     7     2    33 1   
     8     3     4 ar  
     9     3    14 1   
    10     4     6 1   
    11     4     7 ar  
    12     5    18 1   
    13     6    19 1   
    14     7     8 ar  
    15     7    32 1   
    16     8     9 ar  
    17     8    15 1   
    18     9    10 1   
    19    10    20 1   
    20    10    21 1   
    21    10    22 1   
    22    11    12 1   
    23    11    23 1   
    24    11    24 1   
    25    12    13 1   
    26    12    25 1   
    27    13    14 1   
    28    13    26 1   
    29    13    27 1   
    30    15    28 1   
    31    15    29 1   
    32    15    30 1   
    33    31    33 1   
    34    32    34 1   
@<TRIPOS>SUBSTRUCTURE
     1 QO8         1 TEMP              0 ****  ****    0 ROOT
