@<TRIPOS>MOLECULE
QO9
   81    83     1     0     0
SMALL
No Charge or Current Charge


@<TRIPOS>ATOM
      1 C1          -2.5730    -4.5750     1.2080 c          1 QO9       0.367000
      2 N1          -1.8440    -3.8330     2.1370 ns         1 QO9      -0.377000
      3 O1          -3.0940    -5.5990     1.6340 o          1 QO9      -0.313000
      4 S1           0.1800     3.8040     1.0770 s6         1 QO9       2.661000
      5 C2          -2.6420    -4.1180    -0.0630 c2         1 QO9      -0.227000
      6 N2          -1.3040    -2.2050     0.5480 n          1 QO9      -0.262000
      7 O2          -0.5520    -2.0650     2.7690 o          1 QO9      -0.397000
      8 C3          -2.0230    -2.9690    -0.3940 c2         1 QO9       0.043000
      9 O3           0.7660    -0.9620     0.3610 os         1 QO9      -0.246000
     10 C4          -1.1600    -2.6500     1.8810 c          1 QO9       0.434000
     11 O4          -0.1190     2.4640     0.1800 os         1 QO9      -0.616000
     12 C5          -3.4200    -4.8860    -1.1250 c3         1 QO9      -0.146000
     13 O5          -2.1980     0.9060    -0.0490 os         1 QO9      -0.523000
     14 C6          -0.6380    -0.9580     0.0770 c5         1 QO9       0.136000
     15 C7           1.2060     0.3970     0.2320 c5         1 QO9      -0.002000
     16 O7           1.4860     4.4270     0.7810 o          1 QO9      -0.884000
     17 C8           0.0680     1.2190     0.9370 c5         1 QO9       0.060000
     18 O8          -1.0110     4.6320     1.3510 o          1 QO9      -0.884000
     19 C9          -1.2150     0.2880     0.8300 c5         1 QO9       0.058000
     20 C10          2.6480     0.5450     0.7770 c3         1 QO9       0.042000
     21 C11          0.3910     1.6380     2.4040 c2         1 QO9       0.172000
     22 C12          0.4720     2.9450     2.5960 c2         1 QO9      -1.045000
     23 C13         -4.5420     1.8730    -1.1180 c3         1 QO9      -0.414000
     24 C14         -4.2730    -0.6580     0.6370 c3         1 QO9      -0.623000
     25 C15         -3.7120     2.0190     1.8650 c3         1 QO9      -0.623000
     26 C16         -6.0690     2.0860    -0.8850 c3         1 QO9      -0.185667
     27 C17         -4.3460     0.9890    -2.3890 c3         1 QO9      -0.185667
     28 C18         -3.8720     3.2610    -1.3630 c3         1 QO9      -0.185667
     29 C19          5.8350    -1.0580    -1.3220 c3         1 QO9      -0.418000
     30 C20          5.5950     1.5300     0.3720 c3         1 QO9      -0.617500
     31 C21          5.1370    -1.1350     1.6990 c3         1 QO9      -0.617500
     32 C22          7.3750    -1.2420    -1.1580 c3         1 QO9      -0.181333
     33 C23          5.5640    -0.2180    -2.6090 c3         1 QO9      -0.181333
     34 C24          5.1760    -2.4630    -1.4880 c3         1 QO9      -0.181333
     35 SI1         -3.7890     1.0420     0.3690 s6         1 QO9       1.390000
     36 SI2          5.1420    -0.1920     0.1750 s6         1 QO9       1.398000
     37 HN1         -1.7990    -4.1920     3.0800 hn         1 QO9       0.259000
     38 H3          -2.0460    -2.5520    -1.4010 h4         1 QO9       0.165000
     39 H5          -2.9880    -5.8810    -1.2890 hc         1 QO9       0.090667
     40 H5A         -4.4660    -5.0260    -0.8260 hc         1 QO9       0.090667
     41 H5B         -3.4260    -4.3690    -2.0930 hc         1 QO9       0.090667
     42 H6          -0.7940    -0.8590    -1.0050 h2         1 QO9       0.121000
     43 H7           1.2230     0.6470    -0.8380 h1         1 QO9       0.133000
     44 H9          -1.6430     0.0490     1.8120 h1         1 QO9       0.090000
     45 H10          2.7070     0.0720     1.7660 h1         1 QO9       0.085500
     46 H10A         2.8840     1.6130     0.8860 h1         1 QO9       0.085500
     47 H14         -4.0670    -1.2060    -0.2870 h1         1 QO9       0.104833
     48 H14A        -3.6930    -1.0490     1.4780 h1         1 QO9       0.104833
     49 H14B        -5.3440    -0.6580     0.8630 h1         1 QO9       0.104833
     50 H15         -4.7420     2.2570     2.1490 h1         1 QO9       0.104833
     51 H15A        -3.2170     1.4230     2.6370 h1         1 QO9       0.104833
     52 H15B        -3.1470     2.9270     1.6340 h1         1 QO9       0.104833
     53 H16         -6.2560     2.7210    -0.0080 hc         1 QO9       0.074667
     54 H16A        -6.5360     2.5740    -1.7510 hc         1 QO9       0.074667
     55 H16B        -6.5870     1.1320    -0.7250 hc         1 QO9       0.074667
     56 H17         -4.8320     0.0110    -2.2780 hc         1 QO9       0.074667
     57 H17A        -4.7780     1.4720    -3.2760 hc         1 QO9       0.074667
     58 H17B        -3.2820     0.8140    -2.5950 hc         1 QO9       0.074667
     59 H18         -2.7940     3.1560    -1.5470 hc         1 QO9       0.074667
     60 H18A        -4.3080     3.7610    -2.2370 hc         1 QO9       0.074667
     61 H18B        -4.0030     3.9280    -0.5010 hc         1 QO9       0.074667
     62 H20          5.1850     2.0770    -0.4840 h1         1 QO9       0.099667
     63 H20A         5.1700     1.8850     1.3160 h1         1 QO9       0.099667
     64 H20B         6.6880     1.5800     0.3870 h1         1 QO9       0.099667
     65 H21          6.1610    -1.4800     1.8720 h1         1 QO9       0.099667
     66 H21A         4.8020    -0.4730     2.5040 h1         1 QO9       0.099667
     67 H21B         4.4520    -1.9780     1.5600 h1         1 QO9       0.099667
     68 H22          7.6140    -1.8450    -0.2720 hc         1 QO9       0.070889
     69 H22A         7.8070    -1.7510    -2.0290 hc         1 QO9       0.070889
     70 H22B         7.8850    -0.2750    -1.0540 hc         1 QO9       0.070889
     71 H23          6.0310     0.7740    -2.5460 hc         1 QO9       0.070889
     72 H23A         5.9680    -0.7170    -3.4990 hc         1 QO9       0.070889
     73 H23B         4.4880    -0.0720    -2.7720 hc         1 QO9       0.070889
     74 H24          4.0890    -2.3810    -1.6180 hc         1 QO9       0.070889
     75 H24A         5.5750    -2.9850    -2.3670 hc         1 QO9       0.070889
     76 H24B         5.3620    -3.0990    -0.6130 hc         1 QO9       0.070889
     77 N3           0.5660     0.6540     3.3980 n8         1 QO9      -0.338000
     78 HN3          0.2220    -0.2960     3.2460 hn         1 QO9       0.258500
     79 H42          0.3640     0.8830     4.3700 hn         1 QO9       0.258500
     80 H12          0.6650     3.5430     3.4730 h4         1 QO9       0.197000
     81 O6           3.5310    -0.0880    -0.1740 os         1 QO9      -0.547000
@<TRIPOS>BOND
     1     1     2 1   
     2     1     3 1   
     3     1     5 1   
     4     2    10 1   
     5     2    37 1   
     6     4    11 1   
     7     4    16 1   
     8     4    18 1   
     9     4    22 1   
    10     5     8 1   
    11     5    12 1   
    12     6     8 1   
    13     6    10 1   
    14     6    14 1   
    15     7    10 1   
    16     8    38 1   
    17     9    14 1   
    18     9    15 1   
    19    11    17 1   
    20    12    39 1   
    21    12    40 1   
    22    12    41 1   
    23    13    19 1   
    24    13    35 1   
    25    14    19 1   
    26    14    42 1   
    27    15    17 1   
    28    15    20 1   
    29    15    43 1   
    30    17    19 1   
    31    17    21 1   
    32    19    44 1   
    33    20    45 1   
    34    20    46 1   
    35    20    81 1   
    36    21    22 1   
    37    21    77 1   
    38    22    80 1   
    39    23    26 1   
    40    23    27 1   
    41    23    28 1   
    42    23    35 1   
    43    24    35 1   
    44    24    47 1   
    45    24    48 1   
    46    24    49 1   
    47    25    35 1   
    48    25    50 1   
    49    25    51 1   
    50    25    52 1   
    51    26    53 1   
    52    26    54 1   
    53    26    55 1   
    54    27    56 1   
    55    27    57 1   
    56    27    58 1   
    57    28    59 1   
    58    28    60 1   
    59    28    61 1   
    60    29    32 1   
    61    29    33 1   
    62    29    34 1   
    63    29    36 1   
    64    30    36 1   
    65    30    62 1   
    66    30    63 1   
    67    30    64 1   
    68    31    36 1   
    69    31    65 1   
    70    31    66 1   
    71    31    67 1   
    72    32    68 1   
    73    32    69 1   
    74    32    70 1   
    75    33    71 1   
    76    33    72 1   
    77    33    73 1   
    78    34    74 1   
    79    34    75 1   
    80    34    76 1   
    81    36    81 1   
    82    77    78 1   
    83    77    79 1   
@<TRIPOS>SUBSTRUCTURE
     1 QO9         1 TEMP              0 ****  ****    0 ROOT
