@<TRIPOS>MOLECULE
QO9
   81    83     1     0     0
SMALL
bcc


@<TRIPOS>ATOM
      1 C1          -1.6110    -4.5980     1.3190 c2         1 QO9       0.367000
      2 N1          -1.0360    -3.6510     2.1500 ns         1 QO9      -0.377000
      3 O1          -1.9410    -5.6840     1.7550 o          1 QO9      -0.313000
      4 S1          -0.1620     4.0970     0.6230 s6         1 QO9       2.661000
      5 C2          -1.7660    -4.1700    -0.0590 c2         1 QO9      -0.227000
      6 N2          -0.7850    -2.0510     0.5060 n          1 QO9      -0.262000
      7 O2          -0.1470    -1.6430     2.6650 o          1 QO9      -0.397000
      8 C3          -1.3430    -2.9410    -0.3870 c2         1 QO9       0.043000
      9 O3           0.9800    -0.5430     0.2700 os         1 QO9      -0.246000
     10 C4          -0.6180    -2.3910     1.8290 c2         1 QO9       0.434000
     11 O4          -0.3610     2.6620    -0.1250 os         1 QO9      -0.616000
     12 C5          -2.3750    -5.1130    -1.0430 c3         1 QO9      -0.146000
     13 O5          -2.1960     0.8010    -0.1480 os         1 QO9      -0.523000
     14 C6          -0.3780    -0.7500     0.0310 c5         1 QO9       0.136000
     15 C7           1.2040     0.8220     0.0020 c5         1 QO9      -0.002000
     16 O7           0.9710     4.7630     0.0060 o          1 QO9      -0.884000
     17 C8           0.0020     1.5470     0.6580 c5         1 QO9       0.060000
     18 O8          -1.4240     4.8090     0.5650 o          1 QO9      -0.884000
     19 C9          -1.1220     0.4560     0.6410 c5         1 QO9       0.058000
     20 C10          2.5850     1.2430     0.4550 c3         1 QO9       0.042000
     21 C11          0.2750     2.0620     2.0570 c2         1 QO9       0.172000
     22 C12          0.1930     3.4070     2.1480 c2         1 QO9      -1.045000
     23 C13         -4.7400     1.7390    -0.9930 c3         1 QO9      -0.414000
     24 C14         -4.4000    -0.6510     1.0100 c3         1 QO9      -0.623000
     25 C15         -3.6800     2.1990     1.9220 c3         1 QO9      -0.623000
     26 C16         -6.1720     2.0310    -0.5310 c3         1 QO9      -0.185667
     27 C17         -4.7780     0.7240    -2.1400 c3         1 QO9      -0.185667
     28 C18         -4.0940     3.0400    -1.4800 c3         1 QO9      -0.185667
     29 C19          5.6150    -1.0620    -1.3110 c3         1 QO9      -0.418000
     30 C20          5.8140     0.3670     1.4600 c3         1 QO9      -0.617500
     31 C21          3.8200    -1.9240     1.0890 c3         1 QO9      -0.617500
     32 C22          6.7540    -1.9980    -0.8880 c3         1 QO9      -0.181333
     33 C23          6.2100     0.1390    -2.0530 c3         1 QO9      -0.181333
     34 C24          4.6680    -1.8190    -2.2480 c3         1 QO9      -0.181333
     35 SI1         -3.7610     1.0290     0.4580 s6         1 QO9       1.390000
     36 SI2          4.6760    -0.4890     0.2300 s6         1 QO9       1.398000
     37 HN1         -0.9160    -3.9100     3.1220 hn         1 QO9       0.259000
     38 H3          -1.4230    -2.5770    -1.4020 h4         1 QO9       0.165000
     39 H5          -1.7830    -6.0240    -1.1370 hc         1 QO9       0.090667
     40 H5A         -3.3790    -5.4080    -0.7370 hc         1 QO9       0.090667
     41 H5B         -2.4450    -4.6540    -2.0280 hc         1 QO9       0.090667
     42 H6          -0.5870    -0.7390    -1.0470 h2         1 QO9       0.121000
     43 H7           1.1230     1.0090    -1.0800 h1         1 QO9       0.133000
     44 H9          -1.4180     0.2350     1.6720 h1         1 QO9       0.090000
     45 H10          2.7120     1.0200     1.5200 h1         1 QO9       0.085500
     46 H10A         2.6540     2.3320     0.3470 h1         1 QO9       0.085500
     47 H14         -4.3260    -1.3970     0.2180 h1         1 QO9       0.104833
     48 H14A        -3.8330    -1.0220     1.8680 h1         1 QO9       0.104833
     49 H14B        -5.4440    -0.6000     1.3230 h1         1 QO9       0.104833
     50 H15         -4.6780     2.3930     2.3200 h1         1 QO9       0.104833
     51 H15A        -3.0900     1.7840     2.7420 h1         1 QO9       0.104833
     52 H15B        -3.2380     3.1570     1.6460 h1         1 QO9       0.104833
     53 H16         -6.2040     2.7700     0.2730 hc         1 QO9       0.074667
     54 H16A        -6.7610     2.4320    -1.3620 hc         1 QO9       0.074667
     55 H16B        -6.6850     1.1340    -0.1770 hc         1 QO9       0.074667
     56 H17         -5.2710    -0.2050    -1.8470 hc         1 QO9       0.074667
     57 H17A        -5.3360     1.1320    -2.9900 hc         1 QO9       0.074667
     58 H17B        -3.7800     0.4680    -2.4990 hc         1 QO9       0.074667
     59 H18         -3.0710     2.8870    -1.8270 hc         1 QO9       0.074667
     60 H18A        -4.6700     3.4510    -2.3150 hc         1 QO9       0.074667
     61 H18B        -4.0600     3.8010    -0.6980 hc         1 QO9       0.074667
     62 H20          6.4130     1.1490     0.9920 h1         1 QO9       0.099667
     63 H20A         5.2430     0.8290     2.2690 h1         1 QO9       0.099667
     64 H20B         6.5010    -0.3450     1.9240 h1         1 QO9       0.099667
     65 H21          4.5600    -2.6570     1.4170 h1         1 QO9       0.099667
     66 H21A         3.2730    -1.5980     1.9750 h1         1 QO9       0.099667
     67 H21B         3.1090    -2.4290     0.4360 h1         1 QO9       0.099667
     68 H22          6.3940    -2.8730    -0.3410 hc         1 QO9       0.070889
     69 H22A         7.2870    -2.3670    -1.7700 hc         1 QO9       0.070889
     70 H22B         7.4870    -1.4930    -0.2540 hc         1 QO9       0.070889
     71 H23          6.8890     0.7170    -1.4220 hc         1 QO9       0.070889
     72 H23A         6.7840    -0.2000    -2.9210 hc         1 QO9       0.070889
     73 H23B         5.4380     0.8190    -2.4170 hc         1 QO9       0.070889
     74 H24          3.8040    -1.2180    -2.5390 hc         1 QO9       0.070889
     75 H24A         5.1920    -2.1070    -3.1650 hc         1 QO9       0.070889
     76 H24B         4.2900    -2.7370    -1.7910 hc         1 QO9       0.070889
     77 N3           0.5800     1.1980     3.0210 n8         1 QO9      -0.338000
     78 HN3          0.5020     0.1980     2.8860 hn         1 QO9       0.258500
     79 H42          0.7220     1.5220     3.9630 hn         1 QO9       0.258500
     80 H12          0.3490     4.0360     3.0110 h4         1 QO9       0.197000
     81 O6           3.5580     0.6310    -0.3450 os         1 QO9      -0.547000
@<TRIPOS>BOND
     1     1     2 1   
     2     1     3 1   
     3     1     5 1   
     4     2    10 1   
     5     2    37 1   
     6     4    11 1   
     7     4    16 1   
     8     4    18 1   
     9     4    22 1   
    10     5     8 1   
    11     5    12 1   
    12     6     8 1   
    13     6    10 1   
    14     6    14 1   
    15     7    10 1   
    16     8    38 1   
    17     9    14 1   
    18     9    15 1   
    19    11    17 1   
    20    12    39 1   
    21    12    40 1   
    22    12    41 1   
    23    13    19 1   
    24    13    35 1   
    25    14    19 1   
    26    14    42 1   
    27    15    17 1   
    28    15    20 1   
    29    15    43 1   
    30    17    19 1   
    31    17    21 1   
    32    19    44 1   
    33    20    45 1   
    34    20    46 1   
    35    20    81 1   
    36    21    22 1   
    37    21    77 1   
    38    22    80 1   
    39    23    26 1   
    40    23    27 1   
    41    23    28 1   
    42    23    35 1   
    43    24    35 1   
    44    24    47 1   
    45    24    48 1   
    46    24    49 1   
    47    25    35 1   
    48    25    50 1   
    49    25    51 1   
    50    25    52 1   
    51    26    53 1   
    52    26    54 1   
    53    26    55 1   
    54    27    56 1   
    55    27    57 1   
    56    27    58 1   
    57    28    59 1   
    58    28    60 1   
    59    28    61 1   
    60    29    32 1   
    61    29    33 1   
    62    29    34 1   
    63    29    36 1   
    64    30    36 1   
    65    30    62 1   
    66    30    63 1   
    67    30    64 1   
    68    31    36 1   
    69    31    65 1   
    70    31    66 1   
    71    31    67 1   
    72    32    68 1   
    73    32    69 1   
    74    32    70 1   
    75    33    71 1   
    76    33    72 1   
    77    33    73 1   
    78    34    74 1   
    79    34    75 1   
    80    34    76 1   
    81    36    81 1   
    82    77    78 1   
    83    77    79 1   
@<TRIPOS>SUBSTRUCTURE
     1 QO9         1 TEMP              0 ****  ****    0 ROOT
