@<TRIPOS>MOLECULE
QOA
   38    39     1     0     0
SMALL
abcg2


@<TRIPOS>ATOM
      1 C10        -46.9490    32.8100   -16.6580 ca         1 QOA       0.322000
      2 C11        -47.2730    34.1570   -16.8950 ca         1 QOA      -0.185600
      3 C01        -47.7990    28.5380   -14.6630 ca         1 QOA      -0.072000
      4 C02        -48.1400    29.7790   -15.1790 ca         1 QOA      -0.129000
      5 C03        -47.2220    30.8250   -15.2330 ca         1 QOA       0.269000
      6 C04        -45.9440    30.5730   -14.7370 ca         1 QOA       0.142000
      7 C05        -45.5620    29.3410   -14.2480 ca         1 QOA      -0.103000
      8 C06        -46.5050    28.3240   -14.2120 ca         1 QOA       0.196000
      9 C12        -46.5980    34.8270   -17.9070 ca         1 QOA      -0.104000
     10 C13        -45.6160    34.1740   -18.6300 ca         1 QOA       0.284900
     11 C15        -45.9480    32.2460   -17.4620 ca         1 QOA       0.278900
     12 C16        -48.3590    34.8340   -16.1240 c          1 QOA       0.639700
     13 C19        -49.1200    36.9980   -15.2570 c3         1 QOA       0.066000
     14 C20        -49.8250    37.8540   -16.3160 c3         1 QOA       0.143300
     15 C21        -50.6590    37.0490   -17.3040 c3         1 QOA       0.163600
     16 F08        -45.0500    31.5700   -14.7330 f          1 QOA      -0.166000
     17 I07        -45.9610    26.4430   -13.4550 i          1 QOA      -0.297000
     18 N09        -47.5960    32.0840   -15.6850 nu         1 QOA      -0.981000
     19 N14        -45.3000    32.9040   -18.4050 nb         1 QOA      -0.622000
     20 N18        -48.1220    36.1100   -15.8010 ns         1 QOA      -0.475900
     21 O17        -49.3760    34.2280   -15.8010 o          1 QOA      -0.635100
     22 O22        -49.8000    36.3800   -18.1980 oh         1 QOA      -0.673000
     23 O23        -50.7180    38.7400   -15.6760 oh         1 QOA      -0.655000
     24 H2         -49.1450    29.9430   -15.5490 ha         1 QOA       0.128000
     25 H3         -44.5510    29.2060   -13.8850 ha         1 QOA       0.147000
     26 H4         -46.8470    35.8510   -18.1520 ha         1 QOA       0.128000
     27 H5         -45.0820    34.6850   -19.4210 h4         1 QOA       0.024100
     28 H6         -45.6840    31.2000   -17.3460 h4         1 QOA       0.027100
     29 H7         -49.8570    36.4140   -14.7050 h1         1 QOA       0.063700
     30 H8         -48.6250    37.6580   -14.5400 h1         1 QOA       0.063700
     31 H9         -49.0630    38.4070   -16.8850 h1         1 QOA       0.040700
     32 H10        -51.3200    37.7460   -17.8360 h1         1 QOA       0.041700
     33 H11        -51.3030    36.3500   -16.7540 h1         1 QOA       0.041700
     34 H12        -48.5430    32.3770   -15.4880 hn         1 QOA       0.533000
     35 H13        -47.2440    36.5220   -16.0720 hn         1 QOA       0.319500
     36 H14        -50.3150    35.7240   -18.6740 ho         1 QOA       0.456000
     37 H15        -50.2090    39.3470   -15.1300 ho         1 QOA       0.448000
     38 H1         -48.5410    27.7530   -14.6360 ha         1 QOA       0.134000
@<TRIPOS>BOND
     1     1     2 ar  
     2     1    11 ar  
     3     1    18 1   
     4     2     9 ar  
     5     2    12 1   
     6     3     4 ar  
     7     3     8 ar  
     8     3    38 1   
     9     4     5 ar  
    10     4    24 1   
    11     5     6 ar  
    12     5    18 1   
    13     6     7 ar  
    14     6    16 1   
    15     7     8 ar  
    16     7    25 1   
    17     8    17 1   
    18     9    10 ar  
    19     9    26 1   
    20    10    19 ar  
    21    10    27 1   
    22    11    19 ar  
    23    11    28 1   
    24    12    20 1   
    25    12    21 2   
    26    13    14 1   
    27    13    20 1   
    28    13    29 1   
    29    13    30 1   
    30    14    15 1   
    31    14    23 1   
    32    14    31 1   
    33    15    22 1   
    34    15    32 1   
    35    15    33 1   
    36    18    34 1   
    37    20    35 1   
    38    22    36 1   
    39    23    37 1   
@<TRIPOS>SUBSTRUCTURE
     1 QOA         1 TEMP              0 ****  ****    0 ROOT
