@<TRIPOS>MOLECULE
QOA
   38    39     1     0     0
SMALL
No Charge or Current Charge


@<TRIPOS>ATOM
      1 C10        -46.6490    32.8850   -16.7290 ca         1 QOA       0.322000
      2 C11        -46.9690    34.2630   -16.8420 ca         1 QOA      -0.185600
      3 C01        -48.1120    28.6990   -14.4760 ca         1 QOA      -0.072000
      4 C02        -48.2560    29.9900   -15.0190 ca         1 QOA      -0.129000
      5 C03        -47.1270    30.7880   -15.2780 ca         1 QOA       0.269000
      6 C04        -45.8390    30.2790   -14.9470 ca         1 QOA       0.142000
      7 C05        -45.7000    28.9910   -14.4030 ca         1 QOA      -0.103000
      8 C06        -46.8350    28.2010   -14.1740 ca         1 QOA       0.196000
      9 C12        -46.2250    35.0230   -17.7860 ca         1 QOA      -0.104000
     10 C13        -45.2310    34.4100   -18.5700 ca         1 QOA       0.284900
     11 C15        -45.6350    32.3610   -17.5860 ca         1 QOA       0.278900
     12 C16        -48.0660    34.9040   -16.0140 c          1 QOA       0.639700
     13 C19        -49.1140    37.1070   -15.3450 c3         1 QOA       0.066000
     14 C20        -50.1000    37.7820   -16.3430 c3         1 QOA       0.143300
     15 C21        -50.9550    36.7860   -17.1860 c3         1 QOA       0.163600
     16 F08        -44.7260    31.0340   -15.1040 f          1 QOA      -0.166000
     17 I07        -46.6180    26.2180   -13.3330 i          1 QOA      -0.297000
     18 N09        -47.3440    32.0690   -15.8150 nu         1 QOA      -0.981000
     19 N14        -44.9340    33.0970   -18.4860 nb         1 QOA      -0.622000
     20 N18        -48.0750    36.2830   -15.9840 ns         1 QOA      -0.475900
     21 O17        -48.9170    34.2540   -15.4170 o          1 QOA      -0.635100
     22 O22        -50.1680    36.1010   -18.1780 oh         1 QOA      -0.673000
     23 O23        -50.9860    38.6300   -15.5890 oh         1 QOA      -0.655000
     24 H2         -49.2490    30.3640   -15.2510 ha         1 QOA       0.128000
     25 H3         -44.7140    28.6110   -14.1510 ha         1 QOA       0.147000
     26 H4         -46.4140    36.0800   -17.9490 ha         1 QOA       0.128000
     27 H5         -44.6650    34.9880   -19.2990 h4         1 QOA       0.024100
     28 H6         -45.3860    31.3020   -17.5590 h4         1 QOA       0.027100
     29 H7         -49.6850    36.4950   -14.6350 h1         1 QOA       0.063700
     30 H8         -48.6060    37.8880   -14.7650 h1         1 QOA       0.063700
     31 H9         -49.5170    38.3980   -17.0410 h1         1 QOA       0.040700
     32 H10        -51.7610    37.3470   -17.6800 h1         1 QOA       0.041700
     33 H11        -51.4280    36.0620   -16.5090 h1         1 QOA       0.041700
     34 H12        -48.2010    32.5320   -15.4770 hn         1 QOA       0.533000
     35 H13        -47.3330    36.7520   -16.4860 hn         1 QOA       0.319500
     36 H14        -50.7790    35.5050   -18.6670 ho         1 QOA       0.456000
     37 H15        -50.4640    39.4090   -15.2910 ho         1 QOA       0.448000
     38 H1         -48.9890    28.0850   -14.2880 ha         1 QOA       0.134000
@<TRIPOS>BOND
     1     1     2 ar  
     2     1    11 ar  
     3     1    18 1   
     4     2     9 ar  
     5     2    12 1   
     6     3     4 ar  
     7     3     8 ar  
     8     3    38 1   
     9     4     5 ar  
    10     4    24 1   
    11     5     6 ar  
    12     5    18 1   
    13     6     7 ar  
    14     6    16 1   
    15     7     8 ar  
    16     7    25 1   
    17     8    17 1   
    18     9    10 ar  
    19     9    26 1   
    20    10    19 ar  
    21    10    27 1   
    22    11    19 ar  
    23    11    28 1   
    24    12    20 1   
    25    12    21 2   
    26    13    14 1   
    27    13    20 1   
    28    13    29 1   
    29    13    30 1   
    30    14    15 1   
    31    14    23 1   
    32    14    31 1   
    33    15    22 1   
    34    15    32 1   
    35    15    33 1   
    36    18    34 1   
    37    20    35 1   
    38    22    36 1   
    39    23    37 1   
@<TRIPOS>SUBSTRUCTURE
     1 QOA         1 TEMP              0 ****  ****    0 ROOT
