@<TRIPOS>MOLECULE
QOB
   76    77     1     0     0
SMALL
No Charge or Current Charge


@<TRIPOS>ATOM
      1 C4          52.2500  -134.1140    31.8700 ca         1 QOB      -0.108000
      2 C5          51.0670  -133.5180    31.3990 ca         1 QOB      -0.109500
      3 C6          51.1120  -132.2560    30.7810 ca         1 QOB      -0.112000
      4 C7          52.3410  -131.5910    30.6370 ca         1 QOB      -0.109500
      5 C8          53.5240  -132.1870    31.1080 ca         1 QOB      -0.108000
      6 C15         60.3990  -134.4480    38.2830 c          1 QOB       0.604100
      7 C17         61.4130  -135.9760    40.0430 c3         1 QOB       0.045700
      8 C21         59.3310  -138.4940    42.2750 c3         1 QOB      -0.133400
      9 C22         60.0430  -139.7910    41.8020 c3         1 QOB       0.101000
     10 C24         62.2620  -139.5560    43.0140 c          1 QOB       0.601100
     11 C26         63.7810  -139.6680    42.8240 c3         1 QOB      -0.155400
     12 C28         64.6050  -137.4020    41.7740 c3         1 QOB       0.118700
     13 C27         64.5500  -138.3290    43.0170 c3         1 QOB      -0.084400
     14 C29         65.6190  -136.2550    41.9530 c3         1 QOB      -0.105100
     15 N30         63.2940  -136.8410    41.4460 ns         1 QOB      -0.511900
     16 C31         62.8070  -136.6680    40.1650 c          1 QOB       0.599100
     17 O32         63.4460  -137.0310    39.1840 o          1 QOB      -0.608100
     18 O25         61.7550  -139.3510    44.1070 o          1 QOB      -0.615100
     19 N23         61.5130  -139.7630    41.8760 ns         1 QOB      -0.510900
     20 C19         60.0590  -137.1770    41.9220 c3         1 QOB       0.172300
     21 O20         59.3210  -136.0800    42.4660 oh         1 QOB      -0.656000
     22 C18         60.2530  -136.9470    40.3990 c3         1 QOB      -0.082400
     23 N16         61.2460  -135.4700    38.6610 ns         1 QOB      -0.466900
     24 O33         59.7040  -133.8520    39.0980 o          1 QOB      -0.602100
     25 C14         60.4040  -134.1150    36.7630 c3         1 QOB       0.049700
     26 C34         61.4570  -133.0110    36.4440 c3         1 QOB       0.160300
     27 C36         62.9190  -133.4930    36.5640 c3         1 QOB      -0.134100
     28 O35         61.2580  -132.5120    35.1120 oh         1 QOB      -0.675000
     29 N13         59.0510  -133.6990    36.3210 ns         1 QOB      -0.486900
     30 C12         57.9750  -134.5470    36.2100 c          1 QOB       0.600100
     31 O37         58.0420  -135.7260    36.5280 o          1 QOB      -0.611100
     32 C1          56.6830  -133.8990    35.7000 c3         1 QOB      -0.152400
     33 C2          56.3740  -134.3180    34.2430 c3         1 QOB      -0.069400
     34 C41         55.0790  -133.6810    33.6950 c3         1 QOB      -0.075400
     35 C3          53.4850  -133.4520    31.7260 ca         1 QOB      -0.078300
     36 H1          52.2060  -135.0890    32.3500 ha         1 QOB       0.110000
     37 H2          50.1160  -134.0340    31.5130 ha         1 QOB       0.111000
     38 H3          50.1970  -131.7950    30.4170 ha         1 QOB       0.111000
     39 H4          52.3780  -130.6140    30.1600 ha         1 QOB       0.111000
     40 H5          54.4720  -131.6640    30.9940 ha         1 QOB       0.110000
     41 H6          61.4000  -135.1200    40.7300 h1         1 QOB       0.078700
     42 H7          59.2230  -138.5480    43.3650 hc         1 QOB       0.051700
     43 H8          58.3140  -138.4800    41.8640 hc         1 QOB       0.051700
     44 H9          59.6730  -140.6420    42.3890 h1         1 QOB       0.058200
     45 H10         59.7680  -139.9790    40.7550 h1         1 QOB       0.058200
     46 H11         64.1490  -140.3680    43.5830 hc         1 QOB       0.058700
     47 H12         64.0130  -140.0720    41.8310 hc         1 QOB       0.058700
     48 H13         64.9490  -138.0120    40.9270 h1         1 QOB       0.062700
     49 H14         65.5830  -138.5840    43.2850 hc         1 QOB       0.060200
     50 H15         64.1420  -137.7810    43.8760 hc         1 QOB       0.060200
     51 H16         66.6230  -136.6520    42.1430 hc         1 QOB       0.044367
     52 H17         65.6660  -135.6380    41.0480 hc         1 QOB       0.044367
     53 H18         65.3360  -135.6120    42.7950 hc         1 QOB       0.044367
     54 H19         62.7320  -136.4700    42.2030 hn         1 QOB       0.331500
     55 H20         62.0350  -139.9540    41.0280 hn         1 QOB       0.311500
     56 H21         61.0360  -137.2160    42.4110 h1         1 QOB       0.048700
     57 H22         59.1670  -136.2780    43.4150 ho         1 QOB       0.447000
     58 H23         59.3100  -136.5680    39.9860 hc         1 QOB       0.060700
     59 H24         60.4410  -137.8970    39.8860 hc         1 QOB       0.060700
     60 H25         61.7970  -135.9070    37.9300 hn         1 QOB       0.332500
     61 H26         60.6730  -135.0280    36.2170 h1         1 QOB       0.064700
     62 H27         61.3110  -132.1900    37.1610 h1         1 QOB       0.055700
     63 H28         63.1530  -133.7870    37.5940 hc         1 QOB       0.053367
     64 H29         63.1040  -134.3520    35.9070 hc         1 QOB       0.053367
     65 H30         63.6150  -132.6920    36.2860 hc         1 QOB       0.053367
     66 H31         61.9270  -131.8070    34.9620 ho         1 QOB       0.450000
     67 H32         58.9240  -132.7460    36.0010 hn         1 QOB       0.331500
     68 H33         56.7730  -132.8070    35.7350 hc         1 QOB       0.059200
     69 H34         55.8540  -134.2230    36.3390 hc         1 QOB       0.059200
     70 H35         56.2880  -135.4110    34.1920 hc         1 QOB       0.051700
     71 H36         57.2170  -134.0340    33.6000 hc         1 QOB       0.051700
     72 H37         55.1640  -132.5880    33.7450 hc         1 QOB       0.042200
     73 H38         54.2350  -133.9650    34.3370 hc         1 QOB       0.042200
     74 H39         54.6880  -135.1880    32.1870 hc         1 QOB       0.047200
     75 H40         55.6110  -133.8170    31.5980 hc         1 QOB       0.047200
     76 C40         54.7660  -134.0950    32.2410 c3         1 QOB      -0.031100
@<TRIPOS>BOND
     1     1     2 ar  
     2     1    35 ar  
     3     1    36 1   
     4     2     3 ar  
     5     2    37 1   
     6     3     4 ar  
     7     3    38 1   
     8     4     5 ar  
     9     4    39 1   
    10     5    35 ar  
    11     5    40 1   
    12     6    23 1   
    13     6    24 2   
    14     6    25 1   
    15     7    16 1   
    16     7    22 1   
    17     7    23 1   
    18     7    41 1   
    19     8     9 1   
    20     8    20 1   
    21     8    42 1   
    22     8    43 1   
    23     9    19 1   
    24     9    44 1   
    25     9    45 1   
    26    10    11 1   
    27    10    18 2   
    28    10    19 1   
    29    11    13 1   
    30    11    46 1   
    31    11    47 1   
    32    12    13 1   
    33    12    14 1   
    34    12    15 1   
    35    12    48 1   
    36    13    49 1   
    37    13    50 1   
    38    14    51 1   
    39    14    52 1   
    40    14    53 1   
    41    15    16 1   
    42    15    54 1   
    43    16    17 2   
    44    19    55 1   
    45    20    21 1   
    46    20    22 1   
    47    20    56 1   
    48    21    57 1   
    49    22    58 1   
    50    22    59 1   
    51    23    60 1   
    52    25    26 1   
    53    25    29 1   
    54    25    61 1   
    55    26    27 1   
    56    26    28 1   
    57    26    62 1   
    58    27    63 1   
    59    27    64 1   
    60    27    65 1   
    61    28    66 1   
    62    29    30 1   
    63    29    67 1   
    64    30    31 2   
    65    30    32 1   
    66    32    33 1   
    67    32    68 1   
    68    32    69 1   
    69    33    34 1   
    70    33    70 1   
    71    33    71 1   
    72    34    72 1   
    73    34    73 1   
    74    34    76 1   
    75    35    76 1   
    76    74    76 1   
    77    75    76 1   
@<TRIPOS>SUBSTRUCTURE
     1 QOB         1 TEMP              0 ****  ****    0 ROOT
