@<TRIPOS>MOLECULE
QOB
   76    77     1     0     0
SMALL
bcc


@<TRIPOS>ATOM
      1 C4          52.0770  -132.8330    33.9960 ca         1 QOB      -0.126000
      2 C5          51.1190  -131.9240    33.5620 ca         1 QOB      -0.127500
      3 C6          51.2820  -131.2650    32.3520 ca         1 QOB      -0.130000
      4 C7          52.4070  -131.5240    31.5780 ca         1 QOB      -0.127500
      5 C8          53.3580  -132.4350    32.0150 ca         1 QOB      -0.126000
      6 C15         61.2180  -135.2640    37.4370 c          1 QOB       0.671100
      7 C17         61.3760  -136.7210    39.3620 c3         1 QOB       0.045700
      8 C21         59.7200  -139.9310    40.8110 c3         1 QOB      -0.133400
      9 C22         59.9380  -139.8110    42.3210 c3         1 QOB       0.101000
     10 C24         61.4660  -138.0530    43.1650 c          1 QOB       0.668100
     11 C26         62.9050  -137.7800    43.5750 c3         1 QOB      -0.155400
     12 C28         63.7180  -135.7760    42.1690 c3         1 QOB       0.118700
     13 C27         63.3250  -136.3140    43.5460 c3         1 QOB      -0.084400
     14 C29         64.1910  -134.3300    42.2580 c3         1 QOB      -0.105100
     15 N30         62.6050  -135.9210    41.2490 ns         1 QOB      -0.578900
     16 C31         62.7110  -136.2730    39.9580 c          1 QOB       0.666100
     17 O32         63.7640  -136.3470    39.3470 o          1 QOB      -0.608100
     18 O25         60.5860  -137.2060    43.2570 o          1 QOB      -0.615100
     19 N23         61.2330  -139.3050    42.7310 ns         1 QOB      -0.577900
     20 C19         59.7760  -138.6000    40.0540 c3         1 QOB       0.149100
     21 O20         59.0620  -138.6430    38.8340 oh         1 QOB      -0.593800
     22 C18         61.2030  -138.2090    39.7090 c3         1 QOB      -0.082400
     23 N16         61.3100  -136.5000    37.9440 ns         1 QOB      -0.533900
     24 O33         61.2690  -134.2590    38.1290 o          1 QOB      -0.602100
     25 C14         61.1050  -135.1830    35.9160 c3         1 QOB       0.049700
     26 C34         62.4180  -134.6370    35.3450 c3         1 QOB       0.137100
     27 C36         63.5920  -135.5610    35.6260 c3         1 QOB      -0.134100
     28 O35         62.2050  -134.4740    33.9580 oh         1 QOB      -0.612800
     29 N13         60.0220  -134.3050    35.5490 ns         1 QOB      -0.553900
     30 C12         58.7640  -134.5130    35.9740 c          1 QOB       0.667100
     31 O37         58.4840  -135.4170    36.7510 o          1 QOB      -0.611100
     32 C1          57.7210  -133.5560    35.4430 c3         1 QOB      -0.152400
     33 C2          56.5260  -134.2860    34.8390 c3         1 QOB      -0.069400
     34 C41         55.4490  -133.3230    34.3580 c3         1 QOB      -0.075400
     35 C3          53.2090  -133.1010    33.2310 ca         1 QOB      -0.078300
     36 H1          51.9400  -133.3440    34.9430 ha         1 QOB       0.128000
     37 H2          50.2450  -131.7330    34.1710 ha         1 QOB       0.129000
     38 H3          50.5360  -130.5580    32.0110 ha         1 QOB       0.129000
     39 H4          52.5400  -131.0190    30.6300 ha         1 QOB       0.129000
     40 H5          54.2300  -132.6340    31.4010 ha         1 QOB       0.128000
     41 H6          60.5740  -136.1520    39.8460 h1         1 QOB       0.078700
     42 H7          58.7250  -140.3670    40.6860 hc         1 QOB       0.051700
     43 H8          60.4260  -140.6470    40.3770 hc         1 QOB       0.051700
     44 H9          59.1720  -139.1650    42.7500 h1         1 QOB       0.058200
     45 H10         59.8060  -140.7960    42.7700 h1         1 QOB       0.058200
     46 H11         63.0050  -138.1520    44.5990 hc         1 QOB       0.058700
     47 H12         63.5900  -138.3840    42.9740 hc         1 QOB       0.058700
     48 H13         64.5370  -136.3900    41.7840 h1         1 QOB       0.062700
     49 H14         64.1920  -136.1930    44.1970 hc         1 QOB       0.060200
     50 H15         62.5370  -135.6890    43.9750 hc         1 QOB       0.060200
     51 H16         65.0450  -134.2460    42.9300 hc         1 QOB       0.044367
     52 H17         64.4940  -133.9580    41.2790 hc         1 QOB       0.044367
     53 H18         63.3970  -133.6840    42.6370 hc         1 QOB       0.044367
     54 H19         61.6800  -135.8250    41.6410 hn         1 QOB       0.331500
     55 H20         62.0150  -139.9380    42.6650 hn         1 QOB       0.311500
     56 H21         59.3520  -137.8250    40.7100 h1         1 QOB       0.048700
     57 H22         58.1250  -138.7420    39.0300 ho         1 QOB       0.408000
     58 H23         61.5650  -138.8370    38.8880 hc         1 QOB       0.060700
     59 H24         61.8400  -138.4550    40.5560 hc         1 QOB       0.060700
     60 H25         61.1750  -137.2940    37.3400 hn         1 QOB       0.332500
     61 H26         60.9370  -136.1860    35.5000 h1         1 QOB       0.064700
     62 H27         62.6080  -133.6630    35.8180 h1         1 QOB       0.055700
     63 H28         63.7870  -135.6620    36.6930 hc         1 QOB       0.053367
     64 H29         63.4160  -136.5560    35.2150 hc         1 QOB       0.053367
     65 H30         64.4970  -135.1600    35.1680 hc         1 QOB       0.053367
     66 H31         62.9520  -133.9900    33.5930 ho         1 QOB       0.411000
     67 H32         60.1940  -133.6180    34.8320 hn         1 QOB       0.331500
     68 H33         58.1540  -132.8740    34.7070 hc         1 QOB       0.059200
     69 H34         57.3860  -132.9380    36.2820 hc         1 QOB       0.059200
     70 H35         56.0990  -134.9690    35.5760 hc         1 QOB       0.051700
     71 H36         56.8610  -134.9020    33.9990 hc         1 QOB       0.051700
     72 H37         55.8780  -132.6200    33.6380 hc         1 QOB       0.042200
     73 H38         55.0920  -132.7220    35.2000 hc         1 QOB       0.042200
     74 H39         53.8360  -134.7480    34.4380 hc         1 QOB       0.047200
     75 H40         54.6330  -134.6530    32.8790 hc         1 QOB       0.047200
     76 C40         54.2680  -134.0510    33.7160 c3         1 QOB      -0.031100
@<TRIPOS>BOND
     1     1     2 ar  
     2     1    35 ar  
     3     1    36 1   
     4     2     3 ar  
     5     2    37 1   
     6     3     4 ar  
     7     3    38 1   
     8     4     5 ar  
     9     4    39 1   
    10     5    35 ar  
    11     5    40 1   
    12     6    23 1   
    13     6    24 2   
    14     6    25 1   
    15     7    16 1   
    16     7    22 1   
    17     7    23 1   
    18     7    41 1   
    19     8     9 1   
    20     8    20 1   
    21     8    42 1   
    22     8    43 1   
    23     9    19 1   
    24     9    44 1   
    25     9    45 1   
    26    10    11 1   
    27    10    18 2   
    28    10    19 1   
    29    11    13 1   
    30    11    46 1   
    31    11    47 1   
    32    12    13 1   
    33    12    14 1   
    34    12    15 1   
    35    12    48 1   
    36    13    49 1   
    37    13    50 1   
    38    14    51 1   
    39    14    52 1   
    40    14    53 1   
    41    15    16 1   
    42    15    54 1   
    43    16    17 2   
    44    19    55 1   
    45    20    21 1   
    46    20    22 1   
    47    20    56 1   
    48    21    57 1   
    49    22    58 1   
    50    22    59 1   
    51    23    60 1   
    52    25    26 1   
    53    25    29 1   
    54    25    61 1   
    55    26    27 1   
    56    26    28 1   
    57    26    62 1   
    58    27    63 1   
    59    27    64 1   
    60    27    65 1   
    61    28    66 1   
    62    29    30 1   
    63    29    67 1   
    64    30    31 2   
    65    30    32 1   
    66    32    33 1   
    67    32    68 1   
    68    32    69 1   
    69    33    34 1   
    70    33    70 1   
    71    33    71 1   
    72    34    72 1   
    73    34    73 1   
    74    34    76 1   
    75    35    76 1   
    76    74    76 1   
    77    75    76 1   
@<TRIPOS>SUBSTRUCTURE
     1 QOB         1 TEMP              0 ****  ****    0 ROOT
