@<TRIPOS>MOLECULE
QOC
   41    44     1     0     0
SMALL
No Charge or Current Charge


@<TRIPOS>ATOM
      1 N1         -16.6170     5.1870    24.6470 nb         1 QOC      -0.657000
      2 C4         -22.5070     3.9290    29.6640 ca         1 QOC      -0.083000
      3 C5         -22.6280     4.2430    31.0290 ca         1 QOC       0.126000
      4 C6         -21.8970     4.5430    27.2580 c6         1 QOC      -0.090400
      5 C7         -22.9630     5.2950    26.4180 c6         1 QOC      -0.070400
      6 C8         -22.4890     5.4820    24.9700 c6         1 QOC      -0.093400
      7 C10        -20.4240     4.7560    26.8100 c          1 QOC       0.564000
      8 C13        -16.0970     6.4230    24.8170 ca         1 QOC       0.364900
      9 C15        -16.2190     8.7540    25.5430 ca         1 QOC      -0.079000
     10 C17        -18.2910     9.6210    26.4740 ca         1 QOC      -0.089000
     11 O          -19.5350     4.0910    27.3290 o          1 QOC      -0.536000
     12 C3         -22.0300     4.8900    28.7490 ca         1 QOC      -0.053300
     13 C2         -21.6750     6.1720    29.2180 ca         1 QOC      -0.087000
     14 C1         -21.7950     6.4880    30.5820 ca         1 QOC      -0.094000
     15 C          -22.2710     5.5270    31.4900 ca         1 QOC       0.126000
     16 Cl         -22.4090     5.9560    33.1960 cl         1 QOC      -0.179000
     17 N          -20.1230     5.7240    25.8140 n          1 QOC      -0.250400
     18 C9         -21.1890     6.3070    24.9590 c6         1 QOC       0.116000
     19 C11        -18.7650     6.0370    25.4390 ca         1 QOC      -0.085000
     20 C19        -18.1900     7.3090    25.6850 ca         1 QOC      -0.003000
     21 C18        -18.9100     8.3750    26.2700 ca         1 QOC      -0.098000
     22 C16        -16.9500     9.8130    26.1040 ca         1 QOC      -0.110000
     23 C14        -16.8330     7.5020    25.3430 ca         1 QOC      -0.095000
     24 C12        -17.9160     5.0050    24.9770 ca         1 QOC       0.335900
     25 H1         -22.7870     2.9360    29.3210 ha         1 QOC       0.132000
     26 H2         -22.0610     3.4620    27.1470 hc         1 QOC       0.079700
     27 H3         -23.1670     6.2840    26.8530 hc         1 QOC       0.054200
     28 H4         -23.9160     4.7480    26.4430 hc         1 QOC       0.054200
     29 H5         -23.2610     5.9950    24.3810 hc         1 QOC       0.058200
     30 H6         -22.3220     4.5050    24.4950 hc         1 QOC       0.058200
     31 H7         -15.0490     6.5440    24.5460 h4         1 QOC       0.021100
     32 H8         -15.1750     8.9040    25.2740 ha         1 QOC       0.119000
     33 H9         -18.8530    10.4380    26.9220 ha         1 QOC       0.115000
     34 H10        -21.3060     6.9260    28.5260 ha         1 QOC       0.118000
     35 H11        -21.5200     7.4780    30.9370 ha         1 QOC       0.133000
     36 H12        -20.8210     6.3860    23.9260 h1         1 QOC       0.047700
     37 H13        -21.4160     7.3250    25.3020 h1         1 QOC       0.047700
     38 H14        -19.9400     8.2520    26.5840 ha         1 QOC       0.116000
     39 H15        -16.4750    10.7790    26.2620 ha         1 QOC       0.118000
     40 H16        -18.3040     3.9970    24.8300 h4         1 QOC       0.026100
     41 Cl1        -23.2300     3.0110    32.1400 cl         1 QOC      -0.179000
@<TRIPOS>BOND
     1     1     8 ar  
     2     1    24 ar  
     3     2     3 ar  
     4     2    12 ar  
     5     2    25 1   
     6     3    15 ar  
     7     3    41 1   
     8     4     5 1   
     9     4     7 1   
    10     4    12 1   
    11     4    26 1   
    12     5     6 1   
    13     5    27 1   
    14     5    28 1   
    15     6    18 1   
    16     6    29 1   
    17     6    30 1   
    18     7    11 2   
    19     7    17 1   
    20     8    23 ar  
    21     8    31 1   
    22     9    22 ar  
    23     9    23 ar  
    24     9    32 1   
    25    10    21 ar  
    26    10    22 ar  
    27    10    33 1   
    28    12    13 ar  
    29    13    14 ar  
    30    13    34 1   
    31    14    15 ar  
    32    14    35 1   
    33    15    16 1   
    34    17    18 1   
    35    17    19 1   
    36    18    36 1   
    37    18    37 1   
    38    19    20 ar  
    39    19    24 ar  
    40    20    21 ar  
    41    20    23 ar  
    42    21    38 1   
    43    22    39 1   
    44    24    40 1   
@<TRIPOS>SUBSTRUCTURE
     1 QOC         1 TEMP              0 ****  ****    0 ROOT
