@<TRIPOS>MOLECULE
QOC
   41    44     1     0     0
SMALL
abcg2


@<TRIPOS>ATOM
      1 N1         -16.7630     5.3620    24.1250 nb         1 QOC      -0.657000
      2 C4         -22.3600     4.0640    29.6630 ca         1 QOC      -0.083000
      3 C5         -22.5860     4.3340    31.0090 ca         1 QOC       0.126000
      4 C6         -21.7630     4.7760    27.3240 c6         1 QOC      -0.090400
      5 C7         -22.8290     5.4450    26.4480 c6         1 QOC      -0.070400
      6 C8         -22.4660     5.2750    24.9820 c6         1 QOC      -0.093400
      7 C10        -20.3240     5.0930    26.9090 c          1 QOC       0.564000
      8 C13        -16.2200     6.4980    24.5000 ca         1 QOC       0.364900
      9 C15        -16.2570     8.6750    25.6840 ca         1 QOC      -0.079000
     10 C17        -18.2590     9.3090    26.8750 ca         1 QOC      -0.089000
     11 O          -19.3900     4.8430    27.6700 o          1 QOC      -0.536000
     12 C3         -21.9690     5.0720    28.7910 ca         1 QOC      -0.053300
     13 C2         -21.8060     6.3650    29.2920 ca         1 QOC      -0.087000
     14 C1         -22.0250     6.6410    30.6310 ca         1 QOC      -0.094000
     15 C          -22.4180     5.6260    31.4980 ca         1 QOC       0.126000
     16 CL         -22.6870     6.0040    33.1750 cl         1 QOC      -0.179000
     17 N          -20.1080     5.6110    25.6720 n          1 QOC      -0.250400
     18 C9         -21.1530     5.9760    24.6970 c6         1 QOC       0.116000
     19 C11        -18.7690     5.9550    25.3100 ca         1 QOC      -0.085000
     20 C19        -18.2090     7.1900    25.7230 ca         1 QOC      -0.003000
     21 C18        -18.8860     8.1420    26.5180 ca         1 QOC      -0.098000
     22 C16        -16.9350     9.5800    26.4590 ca         1 QOC      -0.110000
     23 C14        -16.8780     7.4640    25.3000 ca         1 QOC      -0.095000
     24 C12        -18.0310     5.1010    24.5340 ca         1 QOC       0.335900
     25 H1         -22.4930     3.0530    29.3020 ha         1 QOC       0.132000
     26 H2         -21.8470     3.6940    27.1850 hc         1 QOC       0.079700
     27 H3         -22.8920     6.5100    26.6890 hc         1 QOC       0.054200
     28 H4         -23.8010     5.0040    26.6730 hc         1 QOC       0.054200
     29 H5         -23.2350     5.7010    24.3350 hc         1 QOC       0.058200
     30 H6         -22.3830     4.2120    24.7380 hc         1 QOC       0.058200
     31 H7         -15.2040     6.6970    24.1720 h4         1 QOC       0.021100
     32 H8         -15.2430     8.8710    25.3570 ha         1 QOC       0.119000
     33 H9         -18.7810    10.0360    27.4850 ha         1 QOC       0.115000
     34 H10        -21.4990     7.1680    28.6340 ha         1 QOC       0.118000
     35 H11        -21.8930     7.6430    31.0160 ha         1 QOC       0.133000
     36 H12        -20.7790     5.7130    23.7080 h1         1 QOC       0.047700
     37 H13        -21.2890     7.0620    24.7220 h1         1 QOC       0.047700
     38 H14        -19.8990     7.9440    26.8410 ha         1 QOC       0.116000
     39 H15        -16.4620    10.5070    26.7560 ha         1 QOC       0.118000
     40 H16        -18.4600     4.1570    24.2180 h4         1 QOC       0.026100
     41 CL1        -23.0750     3.0290    32.0530 cl         1 QOC      -0.179000
@<TRIPOS>BOND
     1     1     8 ar  
     2     1    24 ar  
     3     2     3 ar  
     4     2    12 ar  
     5     2    25 1   
     6     3    15 ar  
     7     3    41 1   
     8     4     5 1   
     9     4     7 1   
    10     4    12 1   
    11     4    26 1   
    12     5     6 1   
    13     5    27 1   
    14     5    28 1   
    15     6    18 1   
    16     6    29 1   
    17     6    30 1   
    18     7    11 2   
    19     7    17 1   
    20     8    23 ar  
    21     8    31 1   
    22     9    22 ar  
    23     9    23 ar  
    24     9    32 1   
    25    10    21 ar  
    26    10    22 ar  
    27    10    33 1   
    28    12    13 ar  
    29    13    14 ar  
    30    13    34 1   
    31    14    15 ar  
    32    14    35 1   
    33    15    16 1   
    34    17    18 1   
    35    17    19 1   
    36    18    36 1   
    37    18    37 1   
    38    19    20 ar  
    39    19    24 ar  
    40    20    21 ar  
    41    20    23 ar  
    42    21    38 1   
    43    22    39 1   
    44    24    40 1   
@<TRIPOS>SUBSTRUCTURE
     1 QOC         1 TEMP              0 ****  ****    0 ROOT
