@<TRIPOS>MOLECULE
QOD
  129   129     1     0     0
SMALL
No Charge or Current Charge


@<TRIPOS>ATOM
      1 C1          10.8760    40.0600    63.4490 c3         1 QOD       0.145600
      2 C2          10.4850    39.7180    64.9090 c3         1 QOD       0.114700
      3 C3          10.8390    38.2510    65.3070 c3         1 QOD       0.171300
      4 C4          10.5090    37.9160    66.7860 c3         1 QOD      -0.117400
      5 C5          10.7940    36.4480    67.1930 c3         1 QOD      -0.076400
      6 C6          10.6210    36.2060    68.7060 c3         1 QOD      -0.078400
      7 C7          10.7970    34.7220    69.1110 c3         1 QOD      -0.073400
      8 C8          10.7570    34.4680    70.6370 c3         1 QOD      -0.075400
      9 C9           9.3680    34.6790    71.2960 c3         1 QOD      -0.075400
     10 C10          9.3930    34.6870    72.8430 c3         1 QOD      -0.076400
     11 C11          9.7890    33.3450    73.5080 c3         1 QOD      -0.074400
     12 C12         10.1650    33.4670    75.0050 c3         1 QOD      -0.078400
     13 C15         14.2530    39.3350    78.7350 c3         1 QOD      -0.074400
     14 C16         15.4140    38.3440    78.9870 c3         1 QOD      -0.076400
     15 C17         16.7960    39.0260    78.9860 c3         1 QOD      -0.089100
     16 C18          9.0410    34.0060    75.9240 c3         1 QOD      -0.071400
     17 C19          9.4830    34.2690    77.3870 c3         1 QOD      -0.071400
     18 C20         10.0350    33.0490    78.1760 c3         1 QOD      -0.061700
     19 C21          9.0170    31.8880    78.2790 c3         1 QOD      -0.087600
     20 C23         10.5220    33.4790    79.5780 c3         1 QOD      -0.087600
     21 OAA          9.1340    41.4410    66.7840 o          1 QOD      -0.608100
     22 CAB         11.1330    42.6990    67.2710 c3         1 QOD      -0.161400
     23 CAC         11.1880    42.5940    68.8070 c3         1 QOD       0.180300
     24 CAD         12.1100    41.4550    69.3180 c3         1 QOD      -0.116400
     25 CAE         12.2070    41.3260    70.8650 c3         1 QOD      -0.072400
     26 CAF         10.8900    40.9350    71.5880 c3         1 QOD      -0.075400
     27 CAG         10.3870    39.4910    71.3230 c3         1 QOD      -0.071400
     28 CAH         11.3050    38.3560    71.8440 c3         1 QOD      -0.077400
     29 CAI         11.4190    38.2710    73.3840 c3         1 QOD      -0.076400
     30 CAJ         12.3990    37.1730    73.8610 c3         1 QOD      -0.075400
     31 CAK         12.2730    36.8250    75.3630 c3         1 QOD      -0.075400
     32 CAL         12.6510    37.9740    76.3250 c3         1 QOD      -0.076400
     33 CAM         12.5460    37.5620    77.8120 c3         1 QOD      -0.074400
     34 CAN         12.8400    38.7040    78.8180 c3         1 QOD      -0.070400
     35 N2          11.0670    40.7240    65.8190 ns         1 QOD      -0.505900
     36 O1A         12.3150    40.1230    63.3580 os         1 QOD      -0.480000
     37 C1A         12.8540    40.5090    62.0790 c6         1 QOD       0.362300
     38 C2A         14.4130    40.3510    62.0740 c6         1 QOD       0.116300
     39 O2A         14.8160    39.0280    62.5110 oh         1 QOD      -0.713000
     40 C3A         15.0610    41.4360    62.9890 c6         1 QOD       0.183300
     41 O3A         16.4960    41.3040    62.9730 oh         1 QOD      -0.644000
     42 C4A         14.5880    42.8670    62.5710 c6         1 QOD       0.155300
     43 O4A         15.0520    43.2060    61.2380 oh         1 QOD      -0.702000
     44 C5M         13.0250    42.8750    62.6610 c6         1 QOD       0.137300
     45 C6A         12.3800    44.2440    62.2790 c3         1 QOD       0.156600
     46 O6A         12.8730    45.3310    63.0840 oh         1 QOD      -0.732000
     47 O5A         12.4630    41.8690    61.7780 os         1 QOD      -0.471000
     48 O3          10.1240    37.3420    64.4550 oh         1 QOD      -0.660000
     49 O4          11.6660    43.8460    69.3080 oh         1 QOD      -0.667000
     50 H1          10.4300    41.0290    63.1870 h1         1 QOD       0.051700
     51 H2          10.4700    39.3080    62.7600 h1         1 QOD       0.051700
     52 H3           9.3910    39.7970    64.9620 h1         1 QOD       0.095700
     53 H4          11.9200    38.1140    65.1670 h1         1 QOD       0.039700
     54 H5          11.1000    38.5730    67.4340 hc         1 QOD       0.053700
     55 H6           9.4550    38.1460    66.9840 hc         1 QOD       0.053700
     56 H7          10.1170    35.7770    66.6510 hc         1 QOD       0.036200
     57 H8          11.8180    36.1810    66.9030 hc         1 QOD       0.036200
     58 H9          11.3590    36.8150    69.2430 hc         1 QOD       0.040200
     59 H10          9.6290    36.5580    69.0100 hc         1 QOD       0.040200
     60 H11         10.0250    34.1150    68.6220 hc         1 QOD       0.037700
     61 H12         11.7620    34.3680    68.7300 hc         1 QOD       0.037700
     62 H13         11.0810    33.4360    70.8140 hc         1 QOD       0.039200
     63 H14         11.5000    35.1120    71.1230 hc         1 QOD       0.039200
     64 H15          8.9520    35.6390    70.9710 hc         1 QOD       0.038200
     65 H16          8.6760    33.9040    70.9440 hc         1 QOD       0.038200
     66 H17         10.0750    35.4750    73.1790 hc         1 QOD       0.038200
     67 H18          8.3960    34.9760    73.1970 hc         1 QOD       0.038200
     68 H19          8.9670    32.6270    73.3930 hc         1 QOD       0.037700
     69 H20         10.6530    32.9150    72.9900 hc         1 QOD       0.037700
     70 H21         10.4700    32.4740    75.3570 hc         1 QOD       0.038200
     71 H22         11.0470    34.1110    75.0950 hc         1 QOD       0.038200
     72 H23         14.3870    39.8130    77.7570 hc         1 QOD       0.036700
     73 H24         14.3100    40.1390    79.4780 hc         1 QOD       0.036700
     74 H25         15.2620    37.8440    79.9520 hc         1 QOD       0.037700
     75 H26         15.4100    37.5650    78.2160 hc         1 QOD       0.037700
     76 H27         17.5860    38.2870    79.1660 hc         1 QOD       0.030700
     77 H28         16.9890    39.5080    78.0200 hc         1 QOD       0.030700
     78 H29         16.8540    39.7880    79.7720 hc         1 QOD       0.030700
     79 H30          8.1900    33.3150    75.9060 hc         1 QOD       0.037700
     80 H31          8.6710    34.9570    75.5220 hc         1 QOD       0.037700
     81 H32         10.2480    35.0550    77.3760 hc         1 QOD       0.036200
     82 H33          8.6280    34.6870    77.9340 hc         1 QOD       0.036200
     83 H34         10.9160    32.6690    77.6440 hc         1 QOD       0.043700
     84 H35          9.4290    31.0650    78.8740 hc         1 QOD       0.031367
     85 H36          8.0890    32.2240    78.7560 hc         1 QOD       0.031367
     86 H37          8.7720    31.4880    77.2880 hc         1 QOD       0.031367
     87 H38         11.2840    34.2640    79.5000 hc         1 QOD       0.031367
     88 H39          9.6900    33.8670    80.1790 hc         1 QOD       0.031367
     89 H40         10.9660    32.6310    80.1130 hc         1 QOD       0.031367
     90 H41         12.1530    42.7300    66.8710 hc         1 QOD       0.073700
     91 H42         10.6210    43.6330    67.0120 hc         1 QOD       0.073700
     92 H43         10.1660    42.4160    69.1720 h1         1 QOD       0.054700
     93 H44         11.7740    40.5000    68.8990 hc         1 QOD       0.049700
     94 H45         13.1210    41.6170    68.9240 hc         1 QOD       0.049700
     95 H46         12.9860    40.5940    71.1090 hc         1 QOD       0.036700
     96 H47         12.5660    42.2730    71.2840 hc         1 QOD       0.036700
     97 H48         11.0290    41.0750    72.6660 hc         1 QOD       0.040200
     98 H49         10.0990    41.6390    71.3050 hc         1 QOD       0.040200
     99 H50          9.3980    39.3770    71.7840 hc         1 QOD       0.040200
    100 H51         10.2310    39.3540    70.2460 hc         1 QOD       0.040200
    101 H52         10.8950    37.4060    71.4860 hc         1 QOD       0.036200
    102 H53         12.3040    38.4450    71.4000 hc         1 QOD       0.036200
    103 H54         11.7520    39.2340    73.7860 hc         1 QOD       0.039200
    104 H55         10.4220    38.0760    73.7980 hc         1 QOD       0.039200
    105 H56         12.2290    36.2570    73.2830 hc         1 QOD       0.037200
    106 H57         13.4270    37.4850    73.6430 hc         1 QOD       0.037200
    107 H58         11.2430    36.5090    75.5690 hc         1 QOD       0.037200
    108 H59         12.9140    35.9610    75.5740 hc         1 QOD       0.037200
    109 H60         13.6750    38.2960    76.1020 hc         1 QOD       0.039200
    110 H61         11.9940    38.8340    76.1480 hc         1 QOD       0.039200
    111 H62         11.5310    37.1940    78.0030 hc         1 QOD       0.036200
    112 H63         13.2170    36.7170    78.0060 hc         1 QOD       0.036200
    113 H64         12.6860    38.3200    79.8340 hc         1 QOD       0.037200
    114 H65         12.0950    39.4960    78.6750 hc         1 QOD       0.037200
    115 H66         12.0580    40.9120    65.7320 hn         1 QOD       0.317500
    116 H67         12.4400    39.8420    61.3070 h2         1 QOD       0.068700
    117 H68         14.7560    40.5220    61.0430 h1         1 QOD       0.074700
    118 H69         14.1470    38.7530    63.1840 ho         1 QOD       0.510000
    119 H70         14.7030    41.2620    64.0150 h1         1 QOD       0.047700
    120 H71         16.6530    40.3400    62.8490 ho         1 QOD       0.456000
    121 H72         14.9840    43.5840    63.3060 h1         1 QOD       0.064700
    122 H73         14.9540    44.1810    61.1460 ho         1 QOD       0.507000
    123 H74         12.7220    42.6480    63.6930 h1         1 QOD       0.052700
    124 H75         12.5720    44.4400    61.2160 h1         1 QOD       0.040200
    125 H76         11.2930    44.1480    62.4020 h1         1 QOD       0.040200
    126 H77         12.3590    46.1360    62.8310 ho         1 QOD       0.514000
    127 H78         10.3960    36.4360    64.7150 ho         1 QOD       0.449000
    128 H79         11.6870    43.7710    70.2860 ho         1 QOD       0.447000
    129 CAA         10.3400    41.5610    66.6340 c          1 QOD       0.598100
@<TRIPOS>BOND
     1     1     2 1   
     2     1    36 1   
     3     1    50 1   
     4     1    51 1   
     5     2     3 1   
     6     2    35 1   
     7     2    52 1   
     8     3     4 1   
     9     3    48 1   
    10     3    53 1   
    11     4     5 1   
    12     4    54 1   
    13     4    55 1   
    14     5     6 1   
    15     5    56 1   
    16     5    57 1   
    17     6     7 1   
    18     6    58 1   
    19     6    59 1   
    20     7     8 1   
    21     7    60 1   
    22     7    61 1   
    23     8     9 1   
    24     8    62 1   
    25     8    63 1   
    26     9    10 1   
    27     9    64 1   
    28     9    65 1   
    29    10    11 1   
    30    10    66 1   
    31    10    67 1   
    32    11    12 1   
    33    11    68 1   
    34    11    69 1   
    35    12    16 1   
    36    12    70 1   
    37    12    71 1   
    38    13    14 1   
    39    13    34 1   
    40    13    72 1   
    41    13    73 1   
    42    14    15 1   
    43    14    74 1   
    44    14    75 1   
    45    15    76 1   
    46    15    77 1   
    47    15    78 1   
    48    16    17 1   
    49    16    79 1   
    50    16    80 1   
    51    17    18 1   
    52    17    81 1   
    53    17    82 1   
    54    18    19 1   
    55    18    20 1   
    56    18    83 1   
    57    19    84 1   
    58    19    85 1   
    59    19    86 1   
    60    20    87 1   
    61    20    88 1   
    62    20    89 1   
    63    21   129 2   
    64    22    23 1   
    65    22    90 1   
    66    22    91 1   
    67    22   129 1   
    68    23    24 1   
    69    23    49 1   
    70    23    92 1   
    71    24    25 1   
    72    24    93 1   
    73    24    94 1   
    74    25    26 1   
    75    25    95 1   
    76    25    96 1   
    77    26    27 1   
    78    26    97 1   
    79    26    98 1   
    80    27    28 1   
    81    27    99 1   
    82    27   100 1   
    83    28    29 1   
    84    28   101 1   
    85    28   102 1   
    86    29    30 1   
    87    29   103 1   
    88    29   104 1   
    89    30    31 1   
    90    30   105 1   
    91    30   106 1   
    92    31    32 1   
    93    31   107 1   
    94    31   108 1   
    95    32    33 1   
    96    32   109 1   
    97    32   110 1   
    98    33    34 1   
    99    33   111 1   
   100    33   112 1   
   101    34   113 1   
   102    34   114 1   
   103    35   115 1   
   104    35   129 1   
   105    36    37 1   
   106    37    38 1   
   107    37    47 1   
   108    37   116 1   
   109    38    39 1   
   110    38    40 1   
   111    38   117 1   
   112    39   118 1   
   113    40    41 1   
   114    40    42 1   
   115    40   119 1   
   116    41   120 1   
   117    42    43 1   
   118    42    44 1   
   119    42   121 1   
   120    43   122 1   
   121    44    45 1   
   122    44    47 1   
   123    44   123 1   
   124    45    46 1   
   125    45   124 1   
   126    45   125 1   
   127    46   126 1   
   128    48   127 1   
   129    49   128 1   
@<TRIPOS>SUBSTRUCTURE
     1 QOD         1 TEMP              0 ****  ****    0 ROOT
