@<TRIPOS>MOLECULE
QOD
  129   129     1     0     0
SMALL
bcc


@<TRIPOS>ATOM
      1 C1          10.2880    40.4780    64.1230 c3         1 QOD       0.122400
      2 C2          10.4150    39.9420    65.5420 c3         1 QOD       0.114700
      3 C3          10.6560    38.4290    65.6290 c3         1 QOD       0.148100
      4 C4          10.5910    37.9450    67.0750 c3         1 QOD      -0.117400
      5 C5          10.9420    36.4740    67.2590 c3         1 QOD      -0.076400
      6 C6          10.9020    36.0660    68.7250 c3         1 QOD      -0.078400
      7 C7          11.3320    34.6270    68.9810 c3         1 QOD      -0.073400
      8 C8          11.2260    34.2290    70.4520 c3         1 QOD      -0.075400
      9 C9           9.7940    33.9280    70.9000 c3         1 QOD      -0.075400
     10 C10          9.5860    34.0150    72.4090 c3         1 QOD      -0.076400
     11 C11         10.4430    33.0540    73.2300 c3         1 QOD      -0.074400
     12 C12         10.4890    33.4040    74.7150 c3         1 QOD      -0.078400
     13 C15         13.5940    39.8490    78.4840 c3         1 QOD      -0.074400
     14 C16         14.8500    39.0020    78.6450 c3         1 QOD      -0.076400
     15 C17         16.1250    39.7990    78.4060 c3         1 QOD      -0.089100
     16 C18          9.1650    33.2620    75.4560 c3         1 QOD      -0.071400
     17 C19          9.1590    33.9430    76.8240 c3         1 QOD      -0.071400
     18 C20         10.2840    33.5420    77.7810 c3         1 QOD      -0.061700
     19 C21         10.3050    32.0410    78.0480 c3         1 QOD      -0.087600
     20 C23         10.1600    34.3170    79.0880 c3         1 QOD      -0.087600
     21 OAA         10.2010    42.1560    67.2960 o          1 QOD      -0.608100
     22 CAB         12.5750    42.3500    67.5340 c3         1 QOD      -0.161400
     23 CAC         12.5740    42.4470    69.0570 c3         1 QOD       0.157100
     24 CAD         12.8000    41.0780    69.6980 c3         1 QOD      -0.116400
     25 CAE         12.5880    41.0520    71.2120 c3         1 QOD      -0.072400
     26 CAF         11.1230    41.0160    71.6420 c3         1 QOD      -0.075400
     27 CAG         10.3890    39.7120    71.3170 c3         1 QOD      -0.071400
     28 CAH         11.0060    38.4560    71.9280 c3         1 QOD      -0.077400
     29 CAI         11.0100    38.4310    73.4530 c3         1 QOD      -0.076400
     30 CAJ         11.7880    37.2450    74.0120 c3         1 QOD      -0.075400
     31 CAK         11.6210    37.0340    75.5130 c3         1 QOD      -0.075400
     32 CAL         12.0640    38.2120    76.3700 c3         1 QOD      -0.076400
     33 CAM         12.0360    37.8930    77.8600 c3         1 QOD      -0.074400
     34 CAN         12.2910    39.1020    78.7580 c3         1 QOD      -0.070400
     35 N2          11.4840    40.6290    66.2350 ns         1 QOD      -0.572900
     36 O1A         11.4920    40.2180    63.4320 os         1 QOD      -0.433600
     37 C1A         11.7100    41.0010    62.3050 c6         1 QOD       0.315900
     38 C2A         12.9050    40.4270    61.5350 c6         1 QOD       0.093100
     39 O2A         12.7670    39.0500    61.2850 oh         1 QOD      -0.590800
     40 C3A         14.1910    40.6330    62.3310 c6         1 QOD       0.160100
     41 O3A         15.3210    40.1970    61.6200 oh         1 QOD      -0.581800
     42 C4A         14.3660    42.1050    62.6850 c6         1 QOD       0.132100
     43 O4A         14.6090    42.8360    61.5060 oh         1 QOD      -0.579800
     44 C5M         13.1040    42.5790    63.4100 c6         1 QOD       0.114100
     45 C6A         13.0970    44.0640    63.7260 c3         1 QOD       0.133400
     46 O6A         14.2280    44.3390    64.5200 oh         1 QOD      -0.609800
     47 O5A         11.9440    42.3440    62.6260 os         1 QOD      -0.424600
     48 O3           9.6740    37.8170    64.8230 oh         1 QOD      -0.597800
     49 O4          13.5970    43.3620    69.4010 oh         1 QOD      -0.604800
     50 H1          10.0910    41.5530    64.1890 h1         1 QOD       0.051700
     51 H2           9.4380    40.0220    63.6050 h1         1 QOD       0.051700
     52 H3           9.4800    40.1750    66.0570 h1         1 QOD       0.095700
     53 H4          11.6630    38.2140    65.2370 h1         1 QOD       0.039700
     54 H5          11.2800    38.5410    67.6810 hc         1 QOD       0.053700
     55 H6           9.5870    38.1400    67.4670 hc         1 QOD       0.053700
     56 H7          10.2530    35.8360    66.6940 hc         1 QOD       0.036200
     57 H8          11.9420    36.2840    66.8530 hc         1 QOD       0.036200
     58 H9          11.5540    36.7340    69.2990 hc         1 QOD       0.040200
     59 H10          9.8910    36.2330    69.1100 hc         1 QOD       0.040200
     60 H11         10.7310    33.9440    68.3710 hc         1 QOD       0.037700
     61 H12         12.3650    34.5050    68.6410 hc         1 QOD       0.037700
     62 H13         11.8590    33.3580    70.6390 hc         1 QOD       0.039200
     63 H14         11.6400    35.0360    71.0690 hc         1 QOD       0.039200
     64 H15          9.1060    34.6340    70.4240 hc         1 QOD       0.038200
     65 H16          9.5040    32.9380    70.5350 hc         1 QOD       0.038200
     66 H17          9.8050    35.0420    72.7270 hc         1 QOD       0.038200
     67 H18          8.5280    33.8540    72.6320 hc         1 QOD       0.038200
     68 H19         10.0840    32.0280    73.0920 hc         1 QOD       0.037700
     69 H20         11.4690    33.0660    72.8530 hc         1 QOD       0.037700
     70 H21         11.2450    32.7820    75.2040 hc         1 QOD       0.038200
     71 H22         10.8450    34.4350    74.8120 hc         1 QOD       0.038200
     72 H23         13.5750    40.2730    77.4750 hc         1 QOD       0.036700
     73 H24         13.6540    40.7060    79.1620 hc         1 QOD       0.036700
     74 H25         14.8680    38.5680    79.6500 hc         1 QOD       0.037700
     75 H26         14.8220    38.1560    77.9530 hc         1 QOD       0.037700
     76 H27         17.0150    39.1800    78.5220 hc         1 QOD       0.030700
     77 H28         16.1420    40.2160    77.3970 hc         1 QOD       0.030700
     78 H29         16.2070    40.6330    79.1060 hc         1 QOD       0.030700
     79 H30          8.9150    32.2010    75.5550 hc         1 QOD       0.037700
     80 H31          8.3570    33.7010    74.8630 hc         1 QOD       0.037700
     81 H32          9.2100    35.0270    76.6680 hc         1 QOD       0.036200
     82 H33          8.1970    33.7540    77.3140 hc         1 QOD       0.036200
     83 H34         11.2410    33.8210    77.3230 hc         1 QOD       0.043700
     84 H35         11.0960    31.7780    78.7520 hc         1 QOD       0.031367
     85 H36          9.3560    31.7130    78.4810 hc         1 QOD       0.031367
     86 H37         10.4710    31.4640    77.1380 hc         1 QOD       0.031367
     87 H38         10.1650    35.3950    78.9150 hc         1 QOD       0.031367
     88 H39          9.2260    34.0690    79.5990 hc         1 QOD       0.031367
     89 H40         10.9820    34.0880    79.7700 hc         1 QOD       0.031367
     90 H41         13.4670    41.8160    67.1950 hc         1 QOD       0.073700
     91 H42         12.6230    43.3580    67.1100 hc         1 QOD       0.073700
     92 H43         11.5990    42.8430    69.3710 h1         1 QOD       0.054700
     93 H44         12.1420    40.3410    69.2270 hc         1 QOD       0.049700
     94 H45         13.8190    40.7600    69.4560 hc         1 QOD       0.049700
     95 H46         13.1130    40.1890    71.6290 hc         1 QOD       0.036700
     96 H47         13.0740    41.9180    71.6730 hc         1 QOD       0.036700
     97 H48         11.0690    41.2020    72.7180 hc         1 QOD       0.040200
     98 H49         10.5800    41.8460    71.1790 hc         1 QOD       0.040200
     99 H50          9.3530    39.8040    71.6590 hc         1 QOD       0.040200
    100 H51         10.3290    39.5830    70.2310 hc         1 QOD       0.040200
    101 H52         10.4560    37.5810    71.5660 hc         1 QOD       0.036200
    102 H53         12.0290    38.3260    71.5590 hc         1 QOD       0.036200
    103 H54         11.4380    39.3570    73.8440 hc         1 QOD       0.039200
    104 H55          9.9760    38.3990    73.8130 hc         1 QOD       0.039200
    105 H56         11.4760    36.3330    73.4900 hc         1 QOD       0.037200
    106 H57         12.8500    37.3730    73.7770 hc         1 QOD       0.037200
    107 H58         10.5720    36.8040    75.7300 hc         1 QOD       0.037200
    108 H59         12.1880    36.1450    75.8110 hc         1 QOD       0.037200
    109 H60         13.0760    38.5110    76.0740 hc         1 QOD       0.039200
    110 H61         11.4240    39.0780    76.1750 hc         1 QOD       0.039200
    111 H62         11.0580    37.4710    78.1170 hc         1 QOD       0.036200
    112 H63         12.7620    37.1020    78.0720 hc         1 QOD       0.036200
    113 H64         12.2770    38.7780    79.8030 hc         1 QOD       0.037200
    114 H65         11.4560    39.8020    78.6470 hc         1 QOD       0.037200
    115 H66         12.4280    40.3550    66.0140 hn         1 QOD       0.317500
    116 H67         10.8170    41.0140    61.6640 h2         1 QOD       0.068700
    117 H68         12.9790    40.9910    60.5960 h1         1 QOD       0.074700
    118 H69         12.1900    38.9280    60.5260 ho         1 QOD       0.411000
    119 H70         14.0990    40.0880    63.2830 h1         1 QOD       0.047700
    120 H71         15.1920    39.2680    61.4060 ho         1 QOD       0.417000
    121 H72         15.2100    42.1900    63.3810 h1         1 QOD       0.064700
    122 H73         15.0570    43.6540    61.7390 ho         1 QOD       0.408000
    123 H74         13.0440    42.0320    64.3590 h1         1 QOD       0.052700
    124 H75         13.1000    44.6430    62.7930 h1         1 QOD       0.040200
    125 H76         12.1640    44.3050    64.2500 h1         1 QOD       0.040200
    126 H77         14.2470    45.2830    64.7030 ho         1 QOD       0.415000
    127 H78          9.8810    36.8820    64.7410 ho         1 QOD       0.410000
    128 H79         13.5590    43.5220    70.3490 ho         1 QOD       0.408000
    129 CAA         11.3050    41.7090    67.0160 c          1 QOD       0.665100
@<TRIPOS>BOND
     1     1     2 1   
     2     1    36 1   
     3     1    50 1   
     4     1    51 1   
     5     2     3 1   
     6     2    35 1   
     7     2    52 1   
     8     3     4 1   
     9     3    48 1   
    10     3    53 1   
    11     4     5 1   
    12     4    54 1   
    13     4    55 1   
    14     5     6 1   
    15     5    56 1   
    16     5    57 1   
    17     6     7 1   
    18     6    58 1   
    19     6    59 1   
    20     7     8 1   
    21     7    60 1   
    22     7    61 1   
    23     8     9 1   
    24     8    62 1   
    25     8    63 1   
    26     9    10 1   
    27     9    64 1   
    28     9    65 1   
    29    10    11 1   
    30    10    66 1   
    31    10    67 1   
    32    11    12 1   
    33    11    68 1   
    34    11    69 1   
    35    12    16 1   
    36    12    70 1   
    37    12    71 1   
    38    13    14 1   
    39    13    34 1   
    40    13    72 1   
    41    13    73 1   
    42    14    15 1   
    43    14    74 1   
    44    14    75 1   
    45    15    76 1   
    46    15    77 1   
    47    15    78 1   
    48    16    17 1   
    49    16    79 1   
    50    16    80 1   
    51    17    18 1   
    52    17    81 1   
    53    17    82 1   
    54    18    19 1   
    55    18    20 1   
    56    18    83 1   
    57    19    84 1   
    58    19    85 1   
    59    19    86 1   
    60    20    87 1   
    61    20    88 1   
    62    20    89 1   
    63    21   129 2   
    64    22    23 1   
    65    22    90 1   
    66    22    91 1   
    67    22   129 1   
    68    23    24 1   
    69    23    49 1   
    70    23    92 1   
    71    24    25 1   
    72    24    93 1   
    73    24    94 1   
    74    25    26 1   
    75    25    95 1   
    76    25    96 1   
    77    26    27 1   
    78    26    97 1   
    79    26    98 1   
    80    27    28 1   
    81    27    99 1   
    82    27   100 1   
    83    28    29 1   
    84    28   101 1   
    85    28   102 1   
    86    29    30 1   
    87    29   103 1   
    88    29   104 1   
    89    30    31 1   
    90    30   105 1   
    91    30   106 1   
    92    31    32 1   
    93    31   107 1   
    94    31   108 1   
    95    32    33 1   
    96    32   109 1   
    97    32   110 1   
    98    33    34 1   
    99    33   111 1   
   100    33   112 1   
   101    34   113 1   
   102    34   114 1   
   103    35   115 1   
   104    35   129 1   
   105    36    37 1   
   106    37    38 1   
   107    37    47 1   
   108    37   116 1   
   109    38    39 1   
   110    38    40 1   
   111    38   117 1   
   112    39   118 1   
   113    40    41 1   
   114    40    42 1   
   115    40   119 1   
   116    41   120 1   
   117    42    43 1   
   118    42    44 1   
   119    42   121 1   
   120    43   122 1   
   121    44    45 1   
   122    44    47 1   
   123    44   123 1   
   124    45    46 1   
   125    45   124 1   
   126    45   125 1   
   127    46   126 1   
   128    48   127 1   
   129    49   128 1   
@<TRIPOS>SUBSTRUCTURE
     1 QOD         1 TEMP              0 ****  ****    0 ROOT
