@<TRIPOS>MOLECULE
QOE
   70    71     1     0     0
SMALL
bcc


@<TRIPOS>ATOM
      1 C4          55.3560  -133.4580    32.4070 ca         1 QOE      -0.125500
      2 C5          54.3030  -132.7550    31.8360 ca         1 QOE      -0.128000
      3 C6          53.2660  -132.2850    32.6310 ca         1 QOE      -0.130000
      4 C7          53.2910  -132.5240    33.9990 ca         1 QOE      -0.128000
      5 C8          54.3450  -133.2280    34.5650 ca         1 QOE      -0.125500
      6 C15         60.8890  -134.1650    37.6970 c          1 QOE       0.677100
      7 C17         61.4480  -135.7190    39.5210 c3         1 QOE       0.040700
      8 C21         58.9390  -138.4090    40.8500 c3         1 QOE      -0.134400
      9 C22         59.3950  -138.7710    42.2650 c3         1 QOE       0.099000
     10 C24         61.5050  -137.8160    43.1290 c          1 QOE       0.668100
     11 C26         63.0010  -138.0510    43.2480 c3         1 QOE      -0.155400
     12 C28         64.1740  -136.0460    42.1410 c3         1 QOE       0.113700
     13 C27         63.8290  -136.7840    43.4340 c3         1 QOE      -0.082400
     14 C29         64.9910  -134.7900    42.4200 c3         1 QOE      -0.107100
     15 N30         62.9690  -135.7420    41.3890 ns         1 QOE      -0.575900
     16 C31         62.8790  -135.8190    40.0520 c          1 QOE       0.648100
     17 O32         63.8250  -136.0450    39.3150 o          1 QOE      -0.616100
     18 O25         60.9590  -136.8440    43.6350 o          1 QOE      -0.617100
     19 N23         60.8280  -138.7770    42.4740 ns         1 QOE      -0.575900
     20 C19         59.4050  -137.0300    40.3680 c3         1 QOE       0.151100
     21 O20         58.5320  -136.4790    39.4010 oh         1 QOE      -0.574800
     22 C18         60.7790  -137.0980    39.7200 c3         1 QOE      -0.083400
     23 N16         61.4490  -135.2990    38.1450 ns         1 QOE      -0.541900
     24 O33         60.2740  -133.3800    38.3980 o          1 QOE      -0.599100
     25 C14         61.1240  -133.8800    36.2100 c3         1 QOE       0.050700
     26 C34         62.2300  -132.8260    36.0660 c3         1 QOE       0.135100
     27 C36         63.5560  -133.2920    36.6440 c3         1 QOE      -0.130100
     28 O35         62.3340  -132.5590    34.6840 oh         1 QOE      -0.604800
     29 N13         59.9160  -133.3850    35.6010 ns         1 QOE      -0.557900
     30 C12         58.7890  -134.1170    35.5610 c          1 QOE       0.665100
     31 O37         58.7270  -135.2340    36.0550 o          1 QOE      -0.598100
     32 C1          57.6090  -133.4440    34.8930 c3         1 QOE      -0.153400
     33 C3          55.3910  -133.7060    33.7780 ca         1 QOE      -0.083300
     34 H1          56.1600  -133.8240    31.7790 ha         1 QOE       0.129500
     35 H2          54.2920  -132.5760    30.7680 ha         1 QOE       0.129000
     36 H3          52.4440  -131.7390    32.1870 ha         1 QOE       0.129000
     37 H4          52.4850  -132.1650    34.6270 ha         1 QOE       0.129000
     38 H5          54.3550  -133.4130    35.6330 ha         1 QOE       0.129500
     39 H6          60.9040  -134.9620    40.0900 h1         1 QOE       0.098700
     40 H7          57.8460  -138.4280    40.8720 hc         1 QOE       0.053200
     41 H8          59.2430  -139.1830    40.1390 hc         1 QOE       0.053200
     42 H9          58.9580  -138.0730    42.9770 h1         1 QOE       0.058200
     43 H10         59.0080  -139.7610    42.5160 h1         1 QOE       0.058200
     44 H11         63.1390  -138.6950    44.1230 hc         1 QOE       0.059700
     45 H12         63.3700  -138.6280    42.3950 hc         1 QOE       0.059700
     46 H13         64.7690  -136.7190    41.5180 h1         1 QOE       0.068700
     47 H14         64.7740  -137.0520    43.9110 hc         1 QOE       0.060700
     48 H15         63.3240  -136.1070    44.1290 hc         1 QOE       0.060700
     49 H16         65.9060  -135.0400    42.9590 hc         1 QOE       0.043367
     50 H17         65.2720  -134.2930    41.4920 hc         1 QOE       0.043367
     51 H18         64.4240  -134.0840    43.0290 hc         1 QOE       0.043367
     52 H19         62.1570  -135.4500    41.9120 hn         1 QOE       0.330500
     53 H20         61.3520  -139.5370    42.0680 hn         1 QOE       0.311500
     54 H21         59.4610  -136.3660    41.2440 h1         1 QOE       0.039700
     55 H22         57.6900  -136.2870    39.8250 ho         1 QOE       0.401000
     56 H23         60.6910  -137.6050    38.7550 hc         1 QOE       0.059700
     57 H24         61.4150  -137.7360    40.3310 hc         1 QOE       0.059700
     58 H25         61.9360  -135.8890    37.4890 hn         1 QOE       0.327500
     59 H26         61.4510  -134.7950    35.7000 h1         1 QOE       0.072700
     60 H27         61.9040  -131.9250    36.6060 h1         1 QOE       0.048700
     61 H28         63.5120  -133.4170    37.7250 hc         1 QOE       0.051033
     62 H29         63.8690  -134.2390    36.2010 hc         1 QOE       0.051033
     63 H30         64.3290  -132.5490    36.4380 hc         1 QOE       0.051033
     64 H31         62.9230  -131.8060    34.5670 ho         1 QOE       0.410000
     65 H32         59.9490  -132.5030    35.1150 hn         1 QOE       0.328500
     66 H33         57.9530  -132.8190    34.0650 hc         1 QOE       0.061200
     67 H34         57.1620  -132.7580    35.6210 hc         1 QOE       0.061200
     68 H35         56.2020  -135.0350    35.2410 hc         1 QOE       0.062200
     69 H36         56.9960  -135.1150    33.6790 hc         1 QOE       0.062200
     70 C2          56.5510  -134.4300    34.4030 c3         1 QOE      -0.020100
@<TRIPOS>BOND
     1     1     2 ar  
     2     1    33 ar  
     3     1    34 1   
     4     2     3 ar  
     5     2    35 1   
     6     3     4 ar  
     7     3    36 1   
     8     4     5 ar  
     9     4    37 1   
    10     5    33 ar  
    11     5    38 1   
    12     6    23 1   
    13     6    24 2   
    14     6    25 1   
    15     7    16 1   
    16     7    22 1   
    17     7    23 1   
    18     7    39 1   
    19     8     9 1   
    20     8    20 1   
    21     8    40 1   
    22     8    41 1   
    23     9    19 1   
    24     9    42 1   
    25     9    43 1   
    26    10    11 1   
    27    10    18 2   
    28    10    19 1   
    29    11    13 1   
    30    11    44 1   
    31    11    45 1   
    32    12    13 1   
    33    12    14 1   
    34    12    15 1   
    35    12    46 1   
    36    13    47 1   
    37    13    48 1   
    38    14    49 1   
    39    14    50 1   
    40    14    51 1   
    41    15    16 1   
    42    15    52 1   
    43    16    17 2   
    44    19    53 1   
    45    20    21 1   
    46    20    22 1   
    47    20    54 1   
    48    21    55 1   
    49    22    56 1   
    50    22    57 1   
    51    23    58 1   
    52    25    26 1   
    53    25    29 1   
    54    25    59 1   
    55    26    27 1   
    56    26    28 1   
    57    26    60 1   
    58    27    61 1   
    59    27    62 1   
    60    27    63 1   
    61    28    64 1   
    62    29    30 1   
    63    29    65 1   
    64    30    31 2   
    65    30    32 1   
    66    32    66 1   
    67    32    67 1   
    68    32    70 1   
    69    33    70 1   
    70    68    70 1   
    71    69    70 1   
@<TRIPOS>SUBSTRUCTURE
     1 QOE         1 TEMP              0 ****  ****    0 ROOT
