@<TRIPOS>MOLECULE
QOE
   70    71     1     0     0
SMALL
No Charge or Current Charge


@<TRIPOS>ATOM
      1 C4          55.7780  -132.5600    32.0200 ca         1 QOE      -0.107500
      2 C5          54.6620  -132.0020    31.3710 ca         1 QOE      -0.110000
      3 C6          53.3880  -132.5660    31.5520 ca         1 QOE      -0.112000
      4 C7          53.2310  -133.6890    32.3820 ca         1 QOE      -0.110000
      5 C8          54.3460  -134.2470    33.0310 ca         1 QOE      -0.107500
      6 C15         60.5300  -133.9770    37.8860 c          1 QOE       0.610100
      7 C17         61.3520  -135.2780    39.9100 c3         1 QOE       0.040700
      8 C21         58.9960  -137.3940    42.2850 c3         1 QOE      -0.134400
      9 C22         59.6760  -138.7690    42.0490 c3         1 QOE       0.099000
     10 C24         61.8100  -138.4570    43.3910 c          1 QOE       0.601100
     11 C26         63.3320  -138.6460    43.3360 c3         1 QOE      -0.155400
     12 C28         64.3350  -136.5730    42.0670 c3         1 QOE       0.113700
     13 C27         64.1450  -137.3220    43.4120 c3         1 QOE      -0.082400
     14 C29         65.3800  -135.4460    42.1760 c3         1 QOE      -0.107100
     15 N30         63.0770  -136.0180    41.5630 ns         1 QOE      -0.508900
     16 C31         62.7050  -135.9870    40.2330 c          1 QOE       0.581100
     17 O32         63.4100  -136.4820    39.3610 o          1 QOE      -0.616100
     18 O25         61.2350  -138.0890    44.4040 o          1 QOE      -0.617100
     19 N23         61.1370  -138.7870    42.2340 ns         1 QOE      -0.508900
     20 C19         59.8110  -136.1670    41.8170 c3         1 QOE       0.174300
     21 O20         59.0880  -134.9780    42.1440 oh         1 QOE      -0.637000
     22 C18         60.1320  -136.1580    40.2990 c3         1 QOE      -0.083400
     23 N16         61.3090  -134.9600    38.4640 ns         1 QOE      -0.474900
     24 O33         59.7970  -133.2600    38.5580 o          1 QOE      -0.599100
     25 C14         60.6610  -133.8530    36.3410 c3         1 QOE       0.050700
     26 C34         61.7790  -132.8360    35.9610 c3         1 QOE       0.158300
     27 C36         63.2070  -133.3340    36.2710 c3         1 QOE      -0.130100
     28 O35         61.7060  -132.5260    34.5610 oh         1 QOE      -0.667000
     29 N13         59.3620  -133.4600    35.7410 ns         1 QOE      -0.490900
     30 C12         58.2660  -134.2850    35.6550 c          1 QOE       0.598100
     31 O37         58.2630  -135.4120    36.1280 o          1 QOE      -0.598100
     32 C1          57.0450  -133.6770    34.9610 c3         1 QOE      -0.153400
     33 C3          55.6260  -133.6860    32.8520 ca         1 QOE      -0.083300
     34 H1          56.7600  -132.1150    31.8760 ha         1 QOE       0.111500
     35 H2          54.7860  -131.1320    30.7300 ha         1 QOE       0.111000
     36 H3          52.5250  -132.1340    31.0500 ha         1 QOE       0.111000
     37 H4          52.2450  -134.1260    32.5240 ha         1 QOE       0.111000
     38 H5          54.2150  -135.1140    33.6740 ha         1 QOE       0.111500
     39 H6          61.3220  -134.3380    40.4760 h1         1 QOE       0.098700
     40 H7          58.8050  -137.2920    43.3600 hc         1 QOE       0.053200
     41 H8          58.0130  -137.3980    41.7970 hc         1 QOE       0.053200
     42 H9          59.2250  -139.5170    42.7160 h1         1 QOE       0.058200
     43 H10         59.4700  -139.0900    41.0200 h1         1 QOE       0.058200
     44 H11         63.6120  -139.2520    44.2060 hc         1 QOE       0.059700
     45 H12         63.6170  -139.1870    42.4260 hc         1 QOE       0.059700
     46 H13         64.7150  -137.3010    41.3370 h1         1 QOE       0.068700
     47 H14         65.1430  -137.5750    43.7920 hc         1 QOE       0.060700
     48 H15         63.7000  -136.6500    44.1570 hc         1 QOE       0.060700
     49 H16         66.3490  -135.8450    42.4990 hc         1 QOE       0.043367
     50 H17         65.5240  -134.9570    41.2050 hc         1 QOE       0.043367
     51 H18         65.0620  -134.6860    42.9000 hc         1 QOE       0.043367
     52 H19         62.4670  -135.5480    42.2210 hn         1 QOE       0.330500
     53 H20         61.7100  -139.1060    41.4620 hn         1 QOE       0.311500
     54 H21         60.7440  -136.1720    42.3860 h1         1 QOE       0.039700
     55 H22         58.8610  -135.0310    43.0980 ho         1 QOE       0.440000
     56 H23         59.2390  -135.8160    39.7610 hc         1 QOE       0.059700
     57 H24         60.3220  -137.1750    39.9380 hc         1 QOE       0.059700
     58 H25         61.9010  -135.5030    37.8450 hn         1 QOE       0.327500
     59 H26         60.9340  -134.8400    35.9460 h1         1 QOE       0.072700
     60 H27         61.6090  -131.9170    36.5410 h1         1 QOE       0.048700
     61 H28         63.3480  -133.4820    37.3480 hc         1 QOE       0.051033
     62 H29         63.4100  -134.2840    35.7610 hc         1 QOE       0.051033
     63 H30         63.9530  -132.6020    35.9410 hc         1 QOE       0.051033
     64 H31         62.4070  -131.8630    34.3730 ho         1 QOE       0.449000
     65 H32         59.2960  -132.5540    35.2940 hn         1 QOE       0.328500
     66 H33         57.1740  -132.5940    34.8510 hc         1 QOE       0.061200
     67 H34         56.1560  -133.8850    35.5670 hc         1 QOE       0.061200
     68 H35         56.7120  -135.3750    33.6510 hc         1 QOE       0.062200
     69 H36         57.7390  -134.1350    32.9570 hc         1 QOE       0.062200
     70 C2          56.8330  -134.2880    33.5590 c3         1 QOE      -0.020100
@<TRIPOS>BOND
     1     1     2 ar  
     2     1    33 ar  
     3     1    34 1   
     4     2     3 ar  
     5     2    35 1   
     6     3     4 ar  
     7     3    36 1   
     8     4     5 ar  
     9     4    37 1   
    10     5    33 ar  
    11     5    38 1   
    12     6    23 1   
    13     6    24 2   
    14     6    25 1   
    15     7    16 1   
    16     7    22 1   
    17     7    23 1   
    18     7    39 1   
    19     8     9 1   
    20     8    20 1   
    21     8    40 1   
    22     8    41 1   
    23     9    19 1   
    24     9    42 1   
    25     9    43 1   
    26    10    11 1   
    27    10    18 2   
    28    10    19 1   
    29    11    13 1   
    30    11    44 1   
    31    11    45 1   
    32    12    13 1   
    33    12    14 1   
    34    12    15 1   
    35    12    46 1   
    36    13    47 1   
    37    13    48 1   
    38    14    49 1   
    39    14    50 1   
    40    14    51 1   
    41    15    16 1   
    42    15    52 1   
    43    16    17 2   
    44    19    53 1   
    45    20    21 1   
    46    20    22 1   
    47    20    54 1   
    48    21    55 1   
    49    22    56 1   
    50    22    57 1   
    51    23    58 1   
    52    25    26 1   
    53    25    29 1   
    54    25    59 1   
    55    26    27 1   
    56    26    28 1   
    57    26    60 1   
    58    27    61 1   
    59    27    62 1   
    60    27    63 1   
    61    28    64 1   
    62    29    30 1   
    63    29    65 1   
    64    30    31 2   
    65    30    32 1   
    66    32    66 1   
    67    32    67 1   
    68    32    70 1   
    69    33    70 1   
    70    68    70 1   
    71    69    70 1   
@<TRIPOS>SUBSTRUCTURE
     1 QOE         1 TEMP              0 ****  ****    0 ROOT
