@<TRIPOS>MOLECULE
QOF
   47    50     1     0     0
SMALL
abcg2


@<TRIPOS>ATOM
      1 C02        -43.5700   -30.3780     3.0420 c          1 QOF       0.719000
      2 C03        -44.3150   -29.9600     1.7490 c5         1 QOF      -0.202700
      3 C04        -43.7810   -30.7960     0.5500 c5         1 QOF      -0.004100
      4 C05        -44.7840   -31.9140     0.4330 ca         1 QOF      -0.087300
      5 C06        -44.6750   -33.1260    -0.2410 ca         1 QOF       0.126100
      6 C08        -45.7390   -34.0300    -0.1990 ca         1 QOF      -0.212000
      7 C09        -46.8980   -33.7160     0.5070 ca         1 QOF      -0.094000
      8 C10        -47.0200   -32.4990     1.1750 ca         1 QOF      -0.118000
      9 C11        -45.9530   -31.6140     1.1230 ca         1 QOF      -0.042300
     10 C12        -45.8420   -30.2290     1.7270 c5         1 QOF       0.165000
     11 C15        -48.2290   -29.4710     4.5640 ca         1 QOF      -0.242600
     12 C16        -49.5610   -29.1350     4.7730 ca         1 QOF       0.417900
     13 C18        -49.3900   -29.2510     7.0610 ca         1 QOF       0.613900
     14 C20        -51.3930   -28.9310     8.4950 c3         1 QOF       0.262800
     15 C21        -52.1730   -30.2230     8.4220 cx         1 QOF      -0.145700
     16 C22        -52.2070   -31.1330     9.6180 cx         1 QOF      -0.136400
     17 C23        -53.4410   -30.3630     9.2170 cx         1 QOF      -0.136400
     18 C24        -48.0220   -29.6000     6.9570 ca         1 QOF      -0.250000
     19 C25        -47.4540   -29.7080     5.7140 ca         1 QOF       0.004000
     20 N13        -46.4870   -30.0670     3.0090 ns         1 QOF      -0.473900
     21 N17        -50.1420   -29.0310     5.9680 nb         1 QOF      -0.769000
     22 N19        -49.9640   -29.1040     8.2810 nu         1 QOF      -0.937100
     23 O01        -42.4010   -29.9420     3.1560 o          1 QOF      -0.731000
     24 O07        -43.5160   -33.3870    -0.9170 oh         1 QOF      -0.539100
     25 O26        -48.4070   -29.1610     2.2110 o          1 QOF      -0.667100
     26 O27        -44.1590   -31.1280     3.8720 o          1 QOF      -0.731000
     27 H031       -44.1120   -28.9000     1.5980 hc         1 QOF       0.053700
     28 H042       -43.7680   -30.1940    -0.3640 hc         1 QOF       0.051700
     29 H041       -42.7620   -31.1460     0.7140 hc         1 QOF       0.051700
     30 H081       -45.6510   -34.9790    -0.7150 ha         1 QOF       0.092000
     31 H091       -47.7090   -34.4330     0.5330 ha         1 QOF       0.094000
     32 H101       -47.9200   -32.2560     1.7260 ha         1 QOF       0.118000
     33 H121       -46.3120   -29.5170     1.0440 h1         1 QOF       0.062700
     34 H161       -50.1950   -28.9460     3.9140 h4         1 QOF       0.034100
     35 H202       -51.5190   -28.4830     9.4830 h1         1 QOF       0.055700
     36 H201       -51.7660   -28.2210     7.7580 h1         1 QOF       0.055700
     37 H211       -52.1550   -30.7030     7.4510 hc         1 QOF       0.097700
     38 H222       -52.1940   -32.2020     9.4510 hc         1 QOF       0.066950
     39 H221       -51.6810   -30.8070    10.5070 hc         1 QOF       0.066950
     40 H232       -54.2640   -30.9090     8.7740 hc         1 QOF       0.066950
     41 H231       -53.7370   -29.5290     9.8400 hc         1 QOF       0.066950
     42 H241       -47.4410   -29.7710     7.8550 ha         1 QOF       0.116000
     43 H251       -46.4040   -29.9640     5.6430 ha         1 QOF       0.151000
     44 H131       -45.9590   -30.4800     3.7700 hn         1 QOF       0.372500
     45 H191       -49.4220   -29.4140     9.0720 hn         1 QOF       0.479000
     46 H071       -43.5650   -34.2640    -1.3220 ho         1 QOF       0.443000
     47 C14        -47.7210   -29.5530     3.1670 c          1 QOF       0.615700
@<TRIPOS>BOND
     1     1     2 1   
     2     1    23 1   
     3     1    26 1   
     4     2     3 1   
     5     2    10 1   
     6     2    27 1   
     7     3     4 1   
     8     3    28 1   
     9     3    29 1   
    10     4     5 ar  
    11     4     9 ar  
    12     5     6 ar  
    13     5    24 1   
    14     6     7 ar  
    15     6    30 1   
    16     7     8 ar  
    17     7    31 1   
    18     8     9 ar  
    19     8    32 1   
    20     9    10 1   
    21    10    20 1   
    22    10    33 1   
    23    11    12 ar  
    24    11    19 ar  
    25    11    47 1   
    26    12    21 ar  
    27    12    34 1   
    28    13    18 ar  
    29    13    21 ar  
    30    13    22 1   
    31    14    15 1   
    32    14    22 1   
    33    14    35 1   
    34    14    36 1   
    35    15    16 1   
    36    15    17 1   
    37    15    37 1   
    38    16    17 1   
    39    16    38 1   
    40    16    39 1   
    41    17    40 1   
    42    17    41 1   
    43    18    19 ar  
    44    18    42 1   
    45    19    43 1   
    46    20    44 1   
    47    20    47 1   
    48    22    45 1   
    49    24    46 1   
    50    25    47 2   
@<TRIPOS>SUBSTRUCTURE
     1 QOF         1 TEMP              0 ****  ****    0 ROOT
