@<TRIPOS>MOLECULE
QOF
   47    50     1     0     0
SMALL
No Charge or Current Charge


@<TRIPOS>ATOM
      1 C02        -44.3860   -29.7880     2.8670 c          1 QOF       0.719000
      2 C03        -45.0980   -29.7950     1.4830 c5         1 QOF      -0.202700
      3 C04        -44.1420   -30.4640     0.4140 c5         1 QOF      -0.004100
      4 C05        -44.6930   -31.8690     0.3520 ca         1 QOF      -0.087300
      5 C06        -44.0750   -32.9950    -0.2200 ca         1 QOF       0.126100
      6 C08        -44.7430   -34.2320    -0.1910 ca         1 QOF      -0.212000
      7 C09        -46.0180   -34.3340     0.4020 ca         1 QOF      -0.094000
      8 C10        -46.6260   -33.1960     0.9660 ca         1 QOF      -0.118000
      9 C11        -45.9420   -31.9690     0.9350 ca         1 QOF      -0.042300
     10 C12        -46.4410   -30.6490     1.4620 c5         1 QOF       0.165000
     11 C15        -48.2510   -29.7130     4.6780 ca         1 QOF      -0.242600
     12 C16        -49.1390   -28.7230     5.1370 ca         1 QOF       0.417900
     13 C18        -49.1670   -29.5890     7.2650 ca         1 QOF       0.613900
     14 C20        -50.8780   -28.8010     8.9850 c3         1 QOF       0.262800
     15 C21        -52.1170   -29.5740     8.5450 cx         1 QOF      -0.145700
     16 C22        -52.7140   -30.6630     9.4110 cx         1 QOF      -0.136400
     17 C23        -53.4470   -29.3540     9.2320 cx         1 QOF      -0.136400
     18 C24        -48.2820   -30.6120     6.9170 ca         1 QOF      -0.250000
     19 C25        -47.8070   -30.6870     5.6000 ca         1 QOF       0.004000
     20 N13        -46.9710   -30.6790     2.8290 ns         1 QOF      -0.473900
     21 N17        -49.5930   -28.6580     6.4090 nb         1 QOF      -0.769000
     22 N19        -49.6500   -29.4840     8.5480 nu         1 QOF      -0.937100
     23 O01        -44.1800   -28.7100     3.4040 o          1 QOF      -0.731000
     24 O07        -42.8450   -32.8990    -0.8020 oh         1 QOF      -0.539100
     25 O26        -48.2180   -28.8020     2.4800 o          1 QOF      -0.667100
     26 O27        -44.0270   -30.8380     3.3810 o          1 QOF      -0.731000
     27 H031       -45.3100   -28.7530     1.2170 hc         1 QOF       0.053700
     28 H042       -44.2250   -29.9690    -0.5600 hc         1 QOF       0.051700
     29 H041       -43.0860   -30.4270     0.7070 hc         1 QOF       0.051700
     30 H081       -44.2840   -35.1160    -0.6270 ha         1 QOF       0.092000
     31 H091       -46.5360   -35.2910     0.4200 ha         1 QOF       0.094000
     32 H101       -47.6130   -33.2660     1.4180 ha         1 QOF       0.118000
     33 H121       -47.1590   -30.2370     0.7390 h1         1 QOF       0.062700
     34 H161       -49.5110   -27.9460     4.4690 h4         1 QOF       0.034100
     35 H202       -50.8820   -28.7150    10.0810 h1         1 QOF       0.055700
     36 H201       -50.9180   -27.7800     8.5810 h1         1 QOF       0.055700
     37 H211       -52.1530   -29.7220     7.4690 hc         1 QOF       0.097700
     38 H222       -53.1150   -31.5420     8.9120 hc         1 QOF       0.066950
     39 H221       -52.2550   -30.8580    10.3770 hc         1 QOF       0.066950
     40 H232       -54.3420   -29.3550     8.6150 hc         1 QOF       0.066950
     41 H231       -53.4800   -28.6730    10.0800 hc         1 QOF       0.066950
     42 H241       -47.9650   -31.3410     7.6560 ha         1 QOF       0.116000
     43 H251       -47.1160   -31.4820     5.3270 ha         1 QOF       0.151000
     44 H131       -46.6690   -31.3540     3.5170 hn         1 QOF       0.372500
     45 H191       -49.2920   -30.2020     9.1740 hn         1 QOF       0.479000
     46 H071       -42.5960   -33.7870    -1.1360 ho         1 QOF       0.443000
     47 C14        -47.8230   -29.6750     3.2400 c          1 QOF       0.615700
@<TRIPOS>BOND
     1     1     2 1   
     2     1    23 1   
     3     1    26 1   
     4     2     3 1   
     5     2    10 1   
     6     2    27 1   
     7     3     4 1   
     8     3    28 1   
     9     3    29 1   
    10     4     5 ar  
    11     4     9 ar  
    12     5     6 ar  
    13     5    24 1   
    14     6     7 ar  
    15     6    30 1   
    16     7     8 ar  
    17     7    31 1   
    18     8     9 ar  
    19     8    32 1   
    20     9    10 1   
    21    10    20 1   
    22    10    33 1   
    23    11    12 ar  
    24    11    19 ar  
    25    11    47 1   
    26    12    21 ar  
    27    12    34 1   
    28    13    18 ar  
    29    13    21 ar  
    30    13    22 1   
    31    14    15 1   
    32    14    22 1   
    33    14    35 1   
    34    14    36 1   
    35    15    16 1   
    36    15    17 1   
    37    15    37 1   
    38    16    17 1   
    39    16    38 1   
    40    16    39 1   
    41    17    40 1   
    42    17    41 1   
    43    18    19 ar  
    44    18    42 1   
    45    19    43 1   
    46    20    44 1   
    47    20    47 1   
    48    22    45 1   
    49    24    46 1   
    50    25    47 2   
@<TRIPOS>SUBSTRUCTURE
     1 QOF         1 TEMP              0 ****  ****    0 ROOT
