@<TRIPOS>MOLECULE
QOG
   27    27     1     0     0
SMALL
No Charge or Current Charge


@<TRIPOS>ATOM
      1 C10          0.6310   -28.1330   -15.3110 c3         1 QOG       0.124700
      2 C11          0.5740   -26.5930   -15.3300 c3         1 QOG      -0.110100
      3 C12         -0.7440   -28.7700   -15.5830 c3         1 QOG      -0.110100
      4 C03          7.3630   -29.7620   -17.1600 cc         1 QOG       0.121300
      5 C06          5.0000   -29.4390   -17.2120 cc         1 QOG       0.541300
      6 C08          2.9590   -28.7330   -16.0260 c          1 QOG       0.657100
      7 N04          6.8360   -30.0940   -18.3350 nd         1 QOG      -0.188000
      8 N05          5.4650   -29.9070   -18.3590 nd         1 QOG      -0.420000
      9 N07          3.6520   -29.2070   -17.0990 ns         1 QOG      -0.487400
     10 N09          1.6160   -28.6260   -16.2750 ns         1 QOG      -0.503900
     11 N15          9.7460   -28.3980   -17.1430 n8         1 QOG      -1.086100
     12 O01          9.3510   -29.9630   -15.3300 o          1 QOG      -0.540000
     13 O13          3.4610   -28.4360   -14.9580 o          1 QOG      -0.619100
     14 O16          9.8270   -30.7580   -17.7160 o          1 QOG      -0.540000
     15 S14          6.2140   -29.1870   -15.9850 ss         1 QOG      -0.051800
     16 H1           0.9470   -28.4470   -14.3050 h1         1 QOG       0.082700
     17 H2          -0.1440   -26.2240   -14.5890 hc         1 QOG       0.047033
     18 H3           1.5560   -26.1660   -15.0920 hc         1 QOG       0.047033
     19 H4           0.2690   -26.2260   -16.3180 hc         1 QOG       0.047033
     20 H5          -1.4760   -28.4400   -14.8360 hc         1 QOG       0.047033
     21 H6          -1.1160   -28.4910   -16.5760 hc         1 QOG       0.047033
     22 H7          -0.6780   -29.8630   -15.5330 hc         1 QOG       0.047033
     23 H8           3.1030   -29.4120   -17.9180 hn         1 QOG       0.342500
     24 H9           1.2860   -28.8970   -17.1920 hn         1 QOG       0.317500
     25 H10         10.2680   -28.2120   -16.2870 hn         1 QOG       0.507500
     26 H11         10.4900   -28.6780   -17.7810 hn         1 QOG       0.507500
     27 S02          9.1370   -29.8750   -16.7740 sy         1 QOG       1.173200
@<TRIPOS>BOND
     1     1     2 1   
     2     1     3 1   
     3     1    10 1   
     4     1    16 1   
     5     2    17 1   
     6     2    18 1   
     7     2    19 1   
     8     3    20 1   
     9     3    21 1   
    10     3    22 1   
    11     4     7 2   
    12     4    15 1   
    13     4    27 1   
    14     5     8 2   
    15     5     9 1   
    16     5    15 1   
    17     6     9 1   
    18     6    10 1   
    19     6    13 2   
    20     7     8 1   
    21     9    23 1   
    22    10    24 1   
    23    11    25 1   
    24    11    26 1   
    25    11    27 1   
    26    12    27 2   
    27    14    27 2   
@<TRIPOS>SUBSTRUCTURE
     1 QOG         1 TEMP              0 ****  ****    0 ROOT
