@<TRIPOS>MOLECULE
QOG
   27    27     1     0     0
SMALL
abcg2


@<TRIPOS>ATOM
      1 C10          0.7720   -28.1450   -15.3060 c3         1 QOG       0.124700
      2 C11          0.7030   -26.6190   -15.2890 c3         1 QOG      -0.110100
      3 C12         -0.6030   -28.7840   -15.4580 c3         1 QOG      -0.110100
      4 C03          7.2910   -29.7840   -17.0990 cc         1 QOG       0.121300
      5 C06          4.9810   -29.4490   -17.4010 cc         1 QOG       0.541300
      6 C08          2.9650   -28.7670   -16.2360 c          1 QOG       0.657100
      7 N04          6.9110   -30.0770   -18.2980 nd         1 QOG      -0.188000
      8 N05          5.5760   -29.8880   -18.4870 nd         1 QOG      -0.420000
      9 N07          3.6430   -29.2060   -17.3750 ns         1 QOG      -0.487400
     10 N09          1.6410   -28.6220   -16.3860 ns         1 QOG      -0.503900
     11 N15          9.6440   -28.4950   -17.0530 n8         1 QOG      -1.086100
     12 O01          8.9290   -29.8990   -15.1330 o          1 QOG      -0.540000
     13 O13          3.5860   -28.5590   -15.1940 o          1 QOG      -0.619100
     14 O16          9.5870   -30.9740   -17.3020 o          1 QOG      -0.540000
     15 S14          6.0330   -29.2310   -16.0350 ss         1 QOG      -0.051800
     16 H1           1.2280   -28.4890   -14.3770 h1         1 QOG       0.082700
     17 H2           0.0920   -26.2800   -14.4500 hc         1 QOG       0.047033
     18 H3           1.7000   -26.1890   -15.1850 hc         1 QOG       0.047033
     19 H4           0.2560   -26.2460   -16.2130 hc         1 QOG       0.047033
     20 H5          -1.2570   -28.4570   -14.6490 hc         1 QOG       0.047033
     21 H6          -1.0610   -28.4880   -16.4060 hc         1 QOG       0.047033
     22 H7          -0.5330   -29.8720   -15.4310 hc         1 QOG       0.047033
     23 H8           3.1420   -29.4040   -18.2310 hn         1 QOG       0.342500
     24 H9           1.2300   -28.7390   -17.3000 hn         1 QOG       0.317500
     25 H10          9.8720   -27.8370   -16.3210 hn         1 QOG       0.507500
     26 H11         10.2830   -28.5470   -17.8360 hn         1 QOG       0.507500
     27 S02          8.9820   -29.8910   -16.5730 sy         1 QOG       1.173200
@<TRIPOS>BOND
     1     1     2 1   
     2     1     3 1   
     3     1    10 1   
     4     1    16 1   
     5     2    17 1   
     6     2    18 1   
     7     2    19 1   
     8     3    20 1   
     9     3    21 1   
    10     3    22 1   
    11     4     7 2   
    12     4    15 1   
    13     4    27 1   
    14     5     8 2   
    15     5     9 1   
    16     5    15 1   
    17     6     9 1   
    18     6    10 1   
    19     6    13 2   
    20     7     8 1   
    21     9    23 1   
    22    10    24 1   
    23    11    25 1   
    24    11    26 1   
    25    11    27 1   
    26    12    27 2   
    27    14    27 2   
@<TRIPOS>SUBSTRUCTURE
     1 QOG         1 TEMP              0 ****  ****    0 ROOT
