@<TRIPOS>MOLECULE
QOH
   90    90     1     0     0
SMALL
bcc


@<TRIPOS>ATOM
      1 C4          54.5960  -133.3230    35.6180 c3         1 QOH      -0.074400
      2 C5          53.3150  -132.8190    34.9610 c3         1 QOH      -0.073400
      3 C6          53.4460  -131.4380    34.3250 c3         1 QOH      -0.073400
      4 C7          52.1110  -130.8030    33.9450 c3         1 QOH      -0.075400
      5 C8          51.2980  -131.5980    32.9280 c3         1 QOH      -0.074400
      6 C10         49.1000  -131.6460    31.5810 c3         1 QOH      -0.059700
      7 C15         61.2540  -134.4220    37.4600 c          1 QOH       0.675100
      8 C17         61.7550  -135.8540    39.3920 c3         1 QOH       0.040700
      9 C21         59.4500  -138.7290    40.6880 c3         1 QOH      -0.132400
     10 C22         59.8420  -138.9950    42.1430 c3         1 QOH       0.099000
     11 C24         61.7110  -137.7300    43.1490 c          1 QOH       0.668100
     12 C26         63.2000  -137.7640    43.4450 c3         1 QOH      -0.153400
     13 C28         64.2370  -135.7360    42.2600 c3         1 QOH       0.112700
     14 C27         63.8490  -136.3920    43.5840 c3         1 QOH      -0.081400
     15 C29         64.8930  -134.3780    42.4800 c3         1 QOH      -0.108100
     16 N30         63.0790  -135.6320    41.3910 ns         1 QOH      -0.574900
     17 C31         63.1250  -135.7950    40.0600 c          1 QOH       0.648100
     18 O32         64.1540  -135.9760    39.4270 o          1 QOH      -0.617100
     19 O25         60.9910  -136.8270    43.5590 o          1 QOH      -0.619100
     20 N23         61.2400  -138.7840    42.4590 ns         1 QOH      -0.574900
     21 C19         59.8040  -137.3220    40.1920 c3         1 QOH       0.150100
     22 O20         58.9170  -136.8610    39.1910 oh         1 QOH      -0.575800
     23 C18         61.1980  -137.2840    39.5860 c3         1 QOH      -0.083400
     24 N16         61.8620  -135.4840    38.0070 ns         1 QOH      -0.540900
     25 O33         60.5050  -133.6730    38.0650 o          1 QOH      -0.603100
     26 C14         61.6160  -134.1610    35.9960 c3         1 QOH       0.049700
     27 C34         62.5810  -132.9710    35.9250 c3         1 QOH       0.135100
     28 C36         63.8680  -133.2210    36.6950 c3         1 QOH      -0.130100
     29 O35         62.8310  -132.7560    34.5520 oh         1 QOH      -0.603800
     30 N13         60.4260  -133.8620    35.2440 ns         1 QOH      -0.555900
     31 C12         59.4010  -134.7270    35.1690 c          1 QOH       0.666100
     32 O37         59.4410  -135.8240    35.7120 o          1 QOH      -0.601100
     33 C1          58.1850  -134.2440    34.4160 c3         1 QOH      -0.150400
     34 C2          56.9970  -134.0710    35.3630 c3         1 QOH      -0.072400
     35 C3          55.7680  -133.5090    34.6620 c3         1 QOH      -0.076400
     36 C9          50.0440  -130.8520    32.4850 c3         1 QOH      -0.073400
     37 C11         49.7640  -132.0540    30.2700 c3         1 QOH      -0.086600
     38 C40         47.8310  -130.8440    31.3080 c3         1 QOH      -0.086600
     39 H1          54.3890  -134.2780    36.1120 hc         1 QOH       0.039200
     40 H2          54.8900  -132.6290    36.4140 hc         1 QOH       0.039200
     41 H3          52.5240  -132.7860    35.7170 hc         1 QOH       0.038200
     42 H4          52.9850  -133.5450    34.2120 hc         1 QOH       0.038200
     43 H5          54.0820  -131.4910    33.4360 hc         1 QOH       0.037200
     44 H6          53.9620  -130.7730    35.0260 hc         1 QOH       0.037200
     45 H7          52.3000  -129.8020    33.5420 hc         1 QOH       0.036200
     46 H8          51.5110  -130.6550    34.8490 hc         1 QOH       0.036200
     47 H9          51.0090  -132.5640    33.3550 hc         1 QOH       0.038200
     48 H10         51.9300  -131.8250    32.0640 hc         1 QOH       0.038200
     49 H11         48.8130  -132.5600    32.1170 hc         1 QOH       0.043700
     50 H12         61.0850  -135.1350    39.8650 h1         1 QOH       0.099700
     51 H13         58.3670  -138.8700    40.6330 hc         1 QOH       0.053200
     52 H14         59.8900  -139.4840    40.0280 hc         1 QOH       0.053200
     53 H15         59.2550  -138.3540    42.7990 h1         1 QOH       0.057700
     54 H16         59.5860  -140.0250    42.3960 h1         1 QOH       0.057700
     55 H17         63.3060  -138.3020    44.3920 hc         1 QOH       0.059700
     56 H18         63.7300  -138.3660    42.7020 hc         1 QOH       0.059700
     57 H19         64.9500  -136.3920    41.7560 h1         1 QOH       0.068700
     58 H20         64.7640  -136.4940    44.1720 hc         1 QOH       0.060700
     59 H21         63.1970  -135.7260    44.1550 hc         1 QOH       0.060700
     60 H22         65.7850  -134.4750    43.0990 hc         1 QOH       0.043700
     61 H23         65.1920  -133.9320    41.5310 hc         1 QOH       0.043700
     62 H24         64.2090  -133.6900    42.9790 hc         1 QOH       0.043700
     63 H25         62.2020  -135.3730    41.8170 hn         1 QOH       0.330500
     64 H26         61.8980  -139.4780    42.1410 hn         1 QOH       0.312500
     65 H27         59.7790  -136.6400    41.0550 h1         1 QOH       0.039700
     66 H28         58.0490  -136.7390    39.5880 ho         1 QOH       0.400000
     67 H29         61.1770  -137.8060    38.6250 hc         1 QOH       0.061700
     68 H30         61.8660  -137.8630    40.2230 hc         1 QOH       0.061700
     69 H31         62.4590  -136.0510    37.4250 hn         1 QOH       0.328500
     70 H32         62.1220  -135.0380    35.5730 h1         1 QOH       0.073700
     71 H33         62.0700  -132.1020    36.3620 h1         1 QOH       0.048700
     72 H34         63.6950  -133.3000    37.7680 hc         1 QOH       0.050367
     73 H35         64.3620  -134.1330    36.3570 hc         1 QOH       0.050367
     74 H36         64.5540  -132.3870    36.5440 hc         1 QOH       0.050367
     75 H37         63.3440  -131.9460    34.4640 ho         1 QOH       0.409000
     76 H38         60.3750  -132.9850    34.7510 hn         1 QOH       0.329500
     77 H39         57.9400  -134.9800    33.6460 hc         1 QOH       0.055200
     78 H40         58.3870  -133.3010    33.9030 hc         1 QOH       0.055200
     79 H41         56.7520  -135.0320    35.8220 hc         1 QOH       0.055700
     80 H42         57.2830  -133.4020    36.1810 hc         1 QOH       0.055700
     81 H43         56.0300  -132.5540    34.1960 hc         1 QOH       0.036200
     82 H44         55.4720  -134.1760    33.8450 hc         1 QOH       0.036200
     83 H45         50.3340  -129.9270    31.9720 hc         1 QOH       0.036200
     84 H46         49.4900  -130.5390    33.3780 hc         1 QOH       0.036200
     85 H47         50.6250  -132.7040    30.4270 hc         1 QOH       0.031533
     86 H48         49.0640  -132.5920    29.6270 hc         1 QOH       0.031533
     87 H49         50.1070  -131.1740    29.7200 hc         1 QOH       0.031533
     88 H50         47.3250  -130.5700    32.2350 hc         1 QOH       0.031533
     89 H51         48.0650  -129.9200    30.7730 hc         1 QOH       0.031533
     90 H52         47.1250  -131.4080    30.6970 hc         1 QOH       0.031533
@<TRIPOS>BOND
     1     1     2 1   
     2     1    35 1   
     3     1    39 1   
     4     1    40 1   
     5     2     3 1   
     6     2    41 1   
     7     2    42 1   
     8     3     4 1   
     9     3    43 1   
    10     3    44 1   
    11     4     5 1   
    12     4    45 1   
    13     4    46 1   
    14     5    36 1   
    15     5    47 1   
    16     5    48 1   
    17     6    36 1   
    18     6    37 1   
    19     6    38 1   
    20     6    49 1   
    21     7    24 1   
    22     7    25 2   
    23     7    26 1   
    24     8    17 1   
    25     8    23 1   
    26     8    24 1   
    27     8    50 1   
    28     9    10 1   
    29     9    21 1   
    30     9    51 1   
    31     9    52 1   
    32    10    20 1   
    33    10    53 1   
    34    10    54 1   
    35    11    12 1   
    36    11    19 2   
    37    11    20 1   
    38    12    14 1   
    39    12    55 1   
    40    12    56 1   
    41    13    14 1   
    42    13    15 1   
    43    13    16 1   
    44    13    57 1   
    45    14    58 1   
    46    14    59 1   
    47    15    60 1   
    48    15    61 1   
    49    15    62 1   
    50    16    17 1   
    51    16    63 1   
    52    17    18 2   
    53    20    64 1   
    54    21    22 1   
    55    21    23 1   
    56    21    65 1   
    57    22    66 1   
    58    23    67 1   
    59    23    68 1   
    60    24    69 1   
    61    26    27 1   
    62    26    30 1   
    63    26    70 1   
    64    27    28 1   
    65    27    29 1   
    66    27    71 1   
    67    28    72 1   
    68    28    73 1   
    69    28    74 1   
    70    29    75 1   
    71    30    31 1   
    72    30    76 1   
    73    31    32 2   
    74    31    33 1   
    75    33    34 1   
    76    33    77 1   
    77    33    78 1   
    78    34    35 1   
    79    34    79 1   
    80    34    80 1   
    81    35    81 1   
    82    35    82 1   
    83    36    83 1   
    84    36    84 1   
    85    37    85 1   
    86    37    86 1   
    87    37    87 1   
    88    38    88 1   
    89    38    89 1   
    90    38    90 1   
@<TRIPOS>SUBSTRUCTURE
     1 QOH         1 TEMP              0 ****  ****    0 ROOT
