@<TRIPOS>MOLECULE
QOH
   90    90     1     0     0
SMALL
No Charge or Current Charge


@<TRIPOS>ATOM
      1 C4          53.9810  -133.0610    35.5340 c3         1 QOH      -0.074400
      2 C5          52.7270  -132.5530    34.7820 c3         1 QOH      -0.073400
      3 C6          52.8730  -131.1300    34.1860 c3         1 QOH      -0.073400
      4 C7          51.5710  -130.5560    33.5790 c3         1 QOH      -0.075400
      5 C8          51.0520  -131.3210    32.3390 c3         1 QOH      -0.074400
      6 C10         49.1750  -131.4530    30.5260 c3         1 QOH      -0.059700
      7 C15         60.8210  -134.3810    37.7900 c          1 QOH       0.608100
      8 C17         61.5040  -135.7950    39.7850 c3         1 QOH       0.040700
      9 C21         60.8790  -138.9190    41.2430 c3         1 QOH      -0.132400
     10 C22         61.1780  -139.5430    42.6220 c3         1 QOH       0.099000
     11 C24         62.5710  -137.9260    43.9710 c          1 QOH       0.601100
     12 C26         64.0150  -137.5840    44.3460 c3         1 QOH      -0.153400
     13 C28         64.5780  -136.3350    42.1020 c3         1 QOH       0.112700
     14 C27         64.5530  -136.3010    43.6550 c3         1 QOH      -0.081400
     15 C29         65.5640  -135.2890    41.5380 c3         1 QOH      -0.108100
     16 N30         63.2430  -136.1020    41.5390 ns         1 QOH      -0.507900
     17 C31         62.8770  -136.3770    40.2330 c          1 QOH       0.581100
     18 O32         63.6140  -136.9890    39.4710 o          1 QOH      -0.617100
     19 O25         61.6140  -137.2820    44.3750 o          1 QOH      -0.619100
     20 N23         62.4360  -139.0410    43.1770 ns         1 QOH      -0.507900
     21 C19         60.2140  -137.5190    41.2900 c3         1 QOH       0.173300
     22 O20         58.8380  -137.6800    41.6470 oh         1 QOH      -0.638000
     23 C18         60.2990  -136.7700    39.9360 c3         1 QOH      -0.083400
     24 N16         61.6060  -135.3530    38.3770 ns         1 QOH      -0.473900
     25 O33         59.9590  -133.7840    38.4260 o          1 QOH      -0.603100
     26 C14         61.1170  -134.1070    36.2880 c3         1 QOH       0.049700
     27 C34         62.1830  -132.9810    36.1320 c3         1 QOH       0.158300
     28 C36         63.6000  -133.3970    36.5810 c3         1 QOH      -0.130100
     29 O35         62.2530  -132.5590    34.7610 oh         1 QOH      -0.666000
     30 N13         59.8660  -133.7560    35.5720 ns         1 QOH      -0.488900
     31 C12         58.8480  -134.6400    35.3080 c          1 QOH       0.599100
     32 O37         58.8950  -135.8090    35.6620 o          1 QOH      -0.601100
     33 C1          57.6730  -134.0630    34.5100 c3         1 QOH      -0.150400
     34 C2          56.4280  -133.8570    35.4050 c3         1 QOH      -0.072400
     35 C3          55.2240  -133.2690    34.6370 c3         1 QOH      -0.076400
     36 C9          49.8020  -130.6630    31.7080 c3         1 QOH      -0.073400
     37 C11         50.1370  -131.6080    29.3240 c3         1 QOH      -0.086600
     38 C40         47.8420  -130.8110    30.0790 c3         1 QOH      -0.086600
     39 H1          53.7290  -134.0150    36.0140 hc         1 QOH       0.039200
     40 H2          54.2270  -132.3600    36.3410 hc         1 QOH       0.039200
     41 H3          51.8810  -132.5580    35.4800 hc         1 QOH       0.038200
     42 H4          52.4810  -133.2650    33.9850 hc         1 QOH       0.038200
     43 H5          53.6520  -131.1290    33.4150 hc         1 QOH       0.037200
     44 H6          53.2140  -130.4500    34.9770 hc         1 QOH       0.037200
     45 H7          51.7540  -129.5120    33.2980 hc         1 QOH       0.036200
     46 H8          50.7900  -130.5390    34.3500 hc         1 QOH       0.036200
     47 H9          50.8050  -132.3510    32.6200 hc         1 QOH       0.038200
     48 H10         51.8580  -131.3710    31.5970 hc         1 QOH       0.038200
     49 H11         48.9380  -132.4610    30.8890 hc         1 QOH       0.043700
     50 H12         61.3180  -134.9130    40.4130 h1         1 QOH       0.099700
     51 H13         60.2180  -139.5990    40.6900 hc         1 QOH       0.053200
     52 H14         61.8110  -138.8800    40.6680 hc         1 QOH       0.053200
     53 H15         60.3530  -139.3620    43.3230 h1         1 QOH       0.057700
     54 H16         61.2800  -140.6300    42.5030 h1         1 QOH       0.057700
     55 H17         64.0580  -137.4240    45.4290 hc         1 QOH       0.059700
     56 H18         64.6770  -138.4170    44.0810 hc         1 QOH       0.059700
     57 H19         64.9230  -137.3280    41.7820 h1         1 QOH       0.068700
     58 H20         65.5770  -136.1460    44.0180 hc         1 QOH       0.060700
     59 H21         63.9790  -135.4300    43.9940 hc         1 QOH       0.060700
     60 H22         66.5770  -135.4690    41.9180 hc         1 QOH       0.043700
     61 H23         65.6070  -135.3380    40.4430 hc         1 QOH       0.043700
     62 H24         65.2640  -134.2750    41.8250 hc         1 QOH       0.043700
     63 H25         62.5770  -135.5830    42.1000 hn         1 QOH       0.330500
     64 H26         63.2930  -139.5160    42.9190 hn         1 QOH       0.312500
     65 H27         60.7090  -136.8980    42.0450 h1         1 QOH       0.039700
     66 H28         58.8090  -137.8280    42.6170 ho         1 QOH       0.439000
     67 H29         59.3820  -136.1860    39.7880 hc         1 QOH       0.061700
     68 H30         60.3180  -137.5060    39.1210 hc         1 QOH       0.061700
     69 H31         62.3000  -135.8040    37.7890 hn         1 QOH       0.328500
     70 H32         61.5130  -135.0320    35.8480 h1         1 QOH       0.073700
     71 H33         61.8670  -132.1310    36.7530 h1         1 QOH       0.048700
     72 H34         63.6230  -133.6230    37.6530 hc         1 QOH       0.050367
     73 H35         63.9410  -134.2830    36.0320 hc         1 QOH       0.050367
     74 H36         64.3160  -132.5860    36.4030 hc         1 QOH       0.050367
     75 H37         62.9140  -131.8330    34.7140 ho         1 QOH       0.448000
     76 H38         59.7740  -132.8180    35.2000 hn         1 QOH       0.329500
     77 H39         57.4130  -134.7670    33.7100 hc         1 QOH       0.055200
     78 H40         57.9530  -133.0960    34.0770 hc         1 QOH       0.055200
     79 H41         56.1390  -134.8180    35.8490 hc         1 QOH       0.055700
     80 H42         56.6880  -133.1880    36.2350 hc         1 QOH       0.055700
     81 H43         55.5220  -132.3110    34.1950 hc         1 QOH       0.036200
     82 H44         54.9630  -133.9400    33.8090 hc         1 QOH       0.036200
     83 H45         50.0600  -129.6510    31.3700 hc         1 QOH       0.036200
     84 H46         49.0430  -130.5450    32.4920 hc         1 QOH       0.036200
     85 H47         51.0220  -132.1950    29.5960 hc         1 QOH       0.031533
     86 H48         49.6410  -132.1290    28.4960 hc         1 QOH       0.031533
     87 H49         50.4700  -130.6280    28.9610 hc         1 QOH       0.031533
     88 H50         47.1360  -130.7550    30.9170 hc         1 QOH       0.031533
     89 H51         48.0060  -129.7940    29.7000 hc         1 QOH       0.031533
     90 H52         47.3730  -131.4020    29.2840 hc         1 QOH       0.031533
@<TRIPOS>BOND
     1     1     2 1   
     2     1    35 1   
     3     1    39 1   
     4     1    40 1   
     5     2     3 1   
     6     2    41 1   
     7     2    42 1   
     8     3     4 1   
     9     3    43 1   
    10     3    44 1   
    11     4     5 1   
    12     4    45 1   
    13     4    46 1   
    14     5    36 1   
    15     5    47 1   
    16     5    48 1   
    17     6    36 1   
    18     6    37 1   
    19     6    38 1   
    20     6    49 1   
    21     7    24 1   
    22     7    25 2   
    23     7    26 1   
    24     8    17 1   
    25     8    23 1   
    26     8    24 1   
    27     8    50 1   
    28     9    10 1   
    29     9    21 1   
    30     9    51 1   
    31     9    52 1   
    32    10    20 1   
    33    10    53 1   
    34    10    54 1   
    35    11    12 1   
    36    11    19 2   
    37    11    20 1   
    38    12    14 1   
    39    12    55 1   
    40    12    56 1   
    41    13    14 1   
    42    13    15 1   
    43    13    16 1   
    44    13    57 1   
    45    14    58 1   
    46    14    59 1   
    47    15    60 1   
    48    15    61 1   
    49    15    62 1   
    50    16    17 1   
    51    16    63 1   
    52    17    18 2   
    53    20    64 1   
    54    21    22 1   
    55    21    23 1   
    56    21    65 1   
    57    22    66 1   
    58    23    67 1   
    59    23    68 1   
    60    24    69 1   
    61    26    27 1   
    62    26    30 1   
    63    26    70 1   
    64    27    28 1   
    65    27    29 1   
    66    27    71 1   
    67    28    72 1   
    68    28    73 1   
    69    28    74 1   
    70    29    75 1   
    71    30    31 1   
    72    30    76 1   
    73    31    32 2   
    74    31    33 1   
    75    33    34 1   
    76    33    77 1   
    77    33    78 1   
    78    34    35 1   
    79    34    79 1   
    80    34    80 1   
    81    35    81 1   
    82    35    82 1   
    83    36    83 1   
    84    36    84 1   
    85    37    85 1   
    86    37    86 1   
    87    37    87 1   
    88    38    88 1   
    89    38    89 1   
    90    38    90 1   
@<TRIPOS>SUBSTRUCTURE
     1 QOH         1 TEMP              0 ****  ****    0 ROOT
