@<TRIPOS>MOLECULE
QOI
   27    29     1     0     0
SMALL
abcg2


@<TRIPOS>ATOM
      1 C4         -40.8580   -10.1540    15.5050 ca         1 QOI      -0.082600
      2 C5         -40.1580    -8.9700    15.6650 ca         1 QOI      -0.110000
      3 C6         -40.1370    -8.3370    16.9080 ca         1 QOI      -0.047000
      4 C7         -42.2900   -11.9800    16.4300 c          1 QOI       0.636300
      5 C8         -42.3110   -12.6330    15.1410 ca         1 QOI      -0.296600
      6 C10        -40.8710   -10.8070    14.1720 c          1 QOI       0.580300
      7 C13        -43.0450   -14.4660    13.7090 ca         1 QOI      -0.264000
      8 O16        -40.2790   -10.3190    13.2200 o          1 QOI      -0.501100
      9 C9         -41.6320   -12.0800    14.0310 ca         1 QOI      -0.042600
     10 C11        -41.6590   -12.6970    12.8000 ca         1 QOI      -0.143000
     11 C12        -42.3720   -13.8940    12.6400 ca         1 QOI       0.209100
     12 O19        -42.3640   -14.4460    11.4090 oh         1 QOI      -0.520100
     13 C14        -43.0200   -13.8460    14.9570 ca         1 QOI       0.264100
     14 O18        -43.6870   -14.4360    15.9570 oh         1 QOI      -0.541100
     15 O15        -42.9040   -12.4800    17.4130 o          1 QOI      -0.638100
     16 C3         -41.5520   -10.7310    16.5920 ca         1 QOI      -0.251600
     17 C1         -40.8090    -8.8790    17.9860 ca         1 QOI      -0.149000
     18 C2         -41.5220   -10.0760    17.8430 ca         1 QOI       0.217100
     19 O17        -42.1560   -10.5560    18.9220 oh         1 QOI      -0.543100
     20 H1         -39.6350    -8.5480    14.8190 ha         1 QOI       0.142000
     21 H2         -39.5910    -7.4110    17.0310 ha         1 QOI       0.125000
     22 H3         -43.5950   -15.3910    13.5890 ha         1 QOI       0.139000
     23 H4         -41.1380   -12.2630    11.9590 ha         1 QOI       0.157000
     24 H5         -42.8860   -15.2610    11.3960 ho         1 QOI       0.476000
     25 H6         -43.5690   -13.8640    16.7580 ho         1 QOI       0.522000
     26 H7         -40.8020    -8.3970    18.9540 ha         1 QOI       0.139000
     27 H8         -42.5990   -11.3970    18.6450 ho         1 QOI       0.519000
@<TRIPOS>BOND
     1     1     2 ar  
     2     1     6 1   
     3     1    16 ar  
     4     2     3 ar  
     5     2    20 1   
     6     3    17 ar  
     7     3    21 1   
     8     4     5 1   
     9     4    15 2   
    10     4    16 1   
    11     5     9 ar  
    12     5    13 ar  
    13     6     8 2   
    14     6     9 1   
    15     7    11 ar  
    16     7    13 ar  
    17     7    22 1   
    18     9    10 ar  
    19    10    11 ar  
    20    10    23 1   
    21    11    12 1   
    22    12    24 1   
    23    13    14 1   
    24    14    25 1   
    25    16    18 ar  
    26    17    18 ar  
    27    17    26 1   
    28    18    19 1   
    29    19    27 1   
@<TRIPOS>SUBSTRUCTURE
     1 QOI         1 TEMP              0 ****  ****    0 ROOT
