@<TRIPOS>MOLECULE
QOI
   27    29     1     0     0
SMALL
No Charge or Current Charge


@<TRIPOS>ATOM
      1 C4         -40.8530   -10.1290    15.5220 ca         1 QOI      -0.082600
      2 C5         -40.1430    -8.9190    15.7010 ca         1 QOI      -0.110000
      3 C6         -40.1130    -8.2790    16.9480 ca         1 QOI      -0.047000
      4 C7         -42.3080   -11.9900    16.4560 c          1 QOI       0.636300
      5 C8         -42.3300   -12.6630    15.1090 ca         1 QOI      -0.296600
      6 C10        -40.8630   -10.7900    14.1610 c          1 QOI       0.580300
      7 C13        -43.0570   -14.4990    13.6650 ca         1 QOI      -0.264000
      8 O16        -40.2660   -10.2950    13.2100 o          1 QOI      -0.501100
      9 C9         -41.6360   -12.0840    14.0130 ca         1 QOI      -0.042600
     10 C11        -41.6710   -12.7340    12.7580 ca         1 QOI      -0.143000
     11 C12        -42.3750   -13.9300    12.5880 ca         1 QOI       0.209100
     12 O19        -42.3940   -14.5370    11.3700 oh         1 QOI      -0.520100
     13 C14        -43.0350   -13.8730    14.9140 ca         1 QOI       0.264100
     14 O18        -43.7120   -14.4610    15.9340 oh         1 QOI      -0.541100
     15 O15        -42.9080   -12.4880    17.4070 o          1 QOI      -0.638100
     16 C3         -41.5440   -10.7000    16.6250 ca         1 QOI      -0.251600
     17 C1         -40.7940    -8.8430    18.0340 ca         1 QOI      -0.149000
     18 C2         -41.5030   -10.0410    17.8780 ca         1 QOI       0.217100
     19 O17        -42.1500   -10.5520    18.9610 oh         1 QOI      -0.543100
     20 H1         -39.6080    -8.4660    14.8680 ha         1 QOI       0.142000
     21 H2         -39.5620    -7.3490    17.0720 ha         1 QOI       0.125000
     22 H3         -43.6070   -15.4280    13.5440 ha         1 QOI       0.139000
     23 H4         -41.1480   -12.3110    11.9040 ha         1 QOI       0.157000
     24 H5         -42.9310   -15.3540    11.4420 ho         1 QOI       0.476000
     25 H6         -43.5720   -13.8680    16.7180 ho         1 QOI       0.522000
     26 H7         -40.7730    -8.3500    19.0030 ha         1 QOI       0.139000
     27 H8         -42.5840   -11.3880    18.6450 ho         1 QOI       0.519000
@<TRIPOS>BOND
     1     1     2 ar  
     2     1     6 1   
     3     1    16 ar  
     4     2     3 ar  
     5     2    20 1   
     6     3    17 ar  
     7     3    21 1   
     8     4     5 1   
     9     4    15 2   
    10     4    16 1   
    11     5     9 ar  
    12     5    13 ar  
    13     6     8 2   
    14     6     9 1   
    15     7    11 ar  
    16     7    13 ar  
    17     7    22 1   
    18     9    10 ar  
    19    10    11 ar  
    20    10    23 1   
    21    11    12 1   
    22    12    24 1   
    23    13    14 1   
    24    14    25 1   
    25    16    18 ar  
    26    17    18 ar  
    27    17    26 1   
    28    18    19 1   
    29    19    27 1   
@<TRIPOS>SUBSTRUCTURE
     1 QOI         1 TEMP              0 ****  ****    0 ROOT
