@<TRIPOS>MOLECULE
QOK
   35    36     1     0     0
SMALL
abcg2


@<TRIPOS>ATOM
      1 N3         -23.8540    -1.5630   -40.0210 na         1 QOK      -0.164500
      2 C4         -25.3180     0.3850   -39.2390 c          1 QOK       0.635600
      3 C7         -24.1930    -2.7470   -40.5540 cc         1 QOK       0.450400
      4 C8         -22.5040    -1.0610   -39.8350 c3         1 QOK       0.309600
      5 C17        -21.4790     0.6190   -42.8950 c3         1 QOK       0.155600
      6 C1         -25.0380    -0.8940   -39.7990 cc         1 QOK      -0.338600
      7 N9         -26.6940     0.6390   -39.2060 n          1 QOK      -0.374400
      8 C14        -27.1510     1.9160   -38.6690 c3         1 QOK       0.085300
      9 O10        -24.4970     1.1840   -38.8260 o          1 QOK      -0.528000
     10 O13        -22.1740    -0.0790   -40.7490 os         1 QOK      -0.433000
     11 C16        -22.0370    -0.5320   -42.0820 c3         1 QOK       0.141600
     12 O18        -21.3660     0.1820   -44.2240 os         1 QOK      -0.459000
     13 C19        -20.8750     1.1800   -45.0830 c3         1 QOK       0.148900
     14 N6         -25.4940    -2.9080   -40.6840 nd         1 QOK      -0.702000
     15 C2         -26.0150    -1.7570   -40.2170 cd         1 QOK       0.435900
     16 N5         -27.3370    -1.4370   -40.1400 n          1 QOK      -0.358300
     17 C11        -27.7030    -0.2090   -39.6500 c          1 QOK       0.616000
     18 O15        -28.8700     0.1270   -39.5990 o          1 QOK      -0.553000
     19 C12        -28.3740    -2.3450   -40.6020 c3         1 QOK       0.102300
     20 H1         -23.4510    -3.4810   -40.8320 h5         1 QOK       0.062100
     21 H27        -21.8410    -1.9310   -39.8950 h2         1 QOK       0.078200
     22 H28        -22.4250    -0.6260   -38.8420 h2         1 QOK       0.078200
     23 H37        -20.5030     0.9250   -42.4930 h1         1 QOK       0.039200
     24 H38        -22.1500     1.4870   -42.8190 h1         1 QOK       0.039200
     25 H33        -27.8560     1.7570   -37.8560 h1         1 QOK       0.057700
     26 H32        -26.2960     2.4620   -38.2890 h1         1 QOK       0.057700
     27 H34        -27.6320     2.5100   -39.4440 h1         1 QOK       0.057700
     28 H35        -23.0040    -0.8420   -42.4990 h1         1 QOK       0.042700
     29 H36        -21.3600    -1.3950   -42.1300 h1         1 QOK       0.042700
     30 H40        -20.7940     0.7530   -46.0810 h1         1 QOK       0.031700
     31 H39        -21.5440     2.0470   -45.1300 h1         1 QOK       0.031700
     32 H41        -19.8850     1.5360   -44.7760 h1         1 QOK       0.031700
     33 H30        -29.1240    -2.4910   -39.8280 h1         1 QOK       0.058700
     34 H29        -28.8570    -1.9610   -41.4980 h1         1 QOK       0.058700
     35 H31        -27.9160    -3.3010   -40.8310 h1         1 QOK       0.058700
@<TRIPOS>BOND
     1     1     3 1   
     2     1     4 1   
     3     1     6 1   
     4     2     6 1   
     5     2     7 1   
     6     2     9 2   
     7     3    14 2   
     8     3    20 1   
     9     4    10 1   
    10     4    21 1   
    11     4    22 1   
    12     5    11 1   
    13     5    12 1   
    14     5    23 1   
    15     5    24 1   
    16     6    15 2   
    17     7     8 1   
    18     7    17 1   
    19     8    25 1   
    20     8    26 1   
    21     8    27 1   
    22    10    11 1   
    23    11    28 1   
    24    11    29 1   
    25    12    13 1   
    26    13    30 1   
    27    13    31 1   
    28    13    32 1   
    29    14    15 1   
    30    15    16 1   
    31    16    17 1   
    32    16    19 1   
    33    17    18 2   
    34    19    33 1   
    35    19    34 1   
    36    19    35 1   
@<TRIPOS>SUBSTRUCTURE
     1 QOK         1 TEMP              0 ****  ****    0 ROOT
