@<TRIPOS>MOLECULE
QOK
   35    36     1     0     0
SMALL
No Charge or Current Charge


@<TRIPOS>ATOM
      1 N3         -23.9310    -1.4000   -40.1560 na         1 QOK      -0.164500
      2 C4         -25.4880     0.4060   -39.0990 c          1 QOK       0.635600
      3 C7         -24.2170    -2.5930   -40.7810 cc         1 QOK       0.450400
      4 C8         -22.5790    -0.9030   -39.8420 c3         1 QOK       0.309600
      5 C17        -21.3680     0.5980   -43.0710 c3         1 QOK       0.155600
      6 C1         -25.1450    -0.8320   -39.8020 cc         1 QOK      -0.338600
      7 N9         -26.8640     0.6230   -38.9520 n          1 QOK      -0.374400
      8 C14        -27.3110     1.8600   -38.2530 c3         1 QOK       0.085300
      9 O10        -24.6430     1.1830   -38.6780 o          1 QOK      -0.528000
     10 O13        -22.1820     0.0330   -40.8670 os         1 QOK      -0.433000
     11 C16        -21.8010    -0.5460   -42.1310 c3         1 QOK       0.141600
     12 O18        -20.9850     0.0230   -44.3350 os         1 QOK      -0.459000
     13 C19        -20.5550     0.9810   -45.3190 c3         1 QOK       0.148900
     14 N6         -25.5280    -2.7750   -40.8680 nd         1 QOK      -0.702000
     15 C2         -26.1000    -1.6810   -40.2610 cd         1 QOK       0.435900
     16 N5         -27.4370    -1.4190   -40.0990 n          1 QOK      -0.358300
     17 C11        -27.8500    -0.2450   -39.4500 c          1 QOK       0.616000
     18 O15        -29.0400     0.0110   -39.3230 o          1 QOK      -0.553000
     19 C12        -28.4710    -2.3480   -40.6160 c3         1 QOK       0.102300
     20 H1         -23.4470    -3.2620   -41.1460 h5         1 QOK       0.062100
     21 H27        -21.8880    -1.7520   -39.7780 h2         1 QOK       0.078200
     22 H28        -22.6190    -0.4160   -38.8620 h2         1 QOK       0.078200
     23 H37        -20.5260     1.1400   -42.6190 h1         1 QOK       0.039200
     24 H38        -22.2040     1.2980   -43.1990 h1         1 QOK       0.039200
     25 H33        -28.2100     1.6620   -37.6560 h1         1 QOK       0.057700
     26 H32        -26.5380     2.2340   -37.5690 h1         1 QOK       0.057700
     27 H34        -27.5380     2.6380   -38.9930 h1         1 QOK       0.057700
     28 H35        -22.6420    -1.0830   -42.5880 h1         1 QOK       0.042700
     29 H36        -20.9650    -1.2460   -42.0020 h1         1 QOK       0.042700
     30 H40        -20.2810     0.4720   -46.2520 h1         1 QOK       0.031700
     31 H39        -21.3570     1.6960   -45.5430 h1         1 QOK       0.031700
     32 H41        -19.6800     1.5390   -44.9630 h1         1 QOK       0.031700
     33 H30        -29.1780    -2.6010   -39.8150 h1         1 QOK       0.058700
     34 H29        -29.0190    -1.8690   -41.4370 h1         1 QOK       0.058700
     35 H31        -28.0250    -3.2780   -40.9880 h1         1 QOK       0.058700
@<TRIPOS>BOND
     1     1     3 1   
     2     1     4 1   
     3     1     6 1   
     4     2     6 1   
     5     2     7 1   
     6     2     9 2   
     7     3    14 2   
     8     3    20 1   
     9     4    10 1   
    10     4    21 1   
    11     4    22 1   
    12     5    11 1   
    13     5    12 1   
    14     5    23 1   
    15     5    24 1   
    16     6    15 2   
    17     7     8 1   
    18     7    17 1   
    19     8    25 1   
    20     8    26 1   
    21     8    27 1   
    22    10    11 1   
    23    11    28 1   
    24    11    29 1   
    25    12    13 1   
    26    13    30 1   
    27    13    31 1   
    28    13    32 1   
    29    14    15 1   
    30    15    16 1   
    31    16    17 1   
    32    16    19 1   
    33    17    18 2   
    34    19    33 1   
    35    19    34 1   
    36    19    35 1   
@<TRIPOS>SUBSTRUCTURE
     1 QOK         1 TEMP              0 ****  ****    0 ROOT
