@<TRIPOS>MOLECULE
QOL
   36    37     1     0     0
SMALL
No Charge or Current Charge


@<TRIPOS>ATOM
      1 OZ1         60.2060    23.0490    50.8130 oh         1 QOL      -0.670000
      2 CE1         60.4440    23.0160    49.3990 c3         1 QOL       0.168100
      3 CD          60.7220    21.5700    48.9210 c3         1 QOL      -0.066700
      4 CE2         62.0310    21.0210    49.5530 c3         1 QOL       0.168100
      5 OZ2         62.5350    19.8950    48.8200 oh         1 QOL      -0.670000
      6 CG          59.4870    20.6640    49.1680 c3         1 QOL       0.168600
      7 OB          59.6090    19.4710    48.3730 os         1 QOL      -0.332100
      8 C8          58.6600    18.4650    48.3840 ca         1 QOL       0.180100
      9 C9          57.4850    18.5610    49.1510 ca         1 QOL      -0.228000
     10 C10         56.5480    17.5130    49.1230 ca         1 QOL       0.281500
     11 C           55.2690    17.5990    49.9460 c          1 QOL       0.480400
     12 O           54.9660    18.5500    50.6670 o          1 QOL      -0.517100
     13 N11         56.7530    16.4010    48.3680 nb         1 QOL      -0.671000
     14 C7          57.8870    16.2820    47.6170 ca         1 QOL       0.224000
     15 C6          58.8680    17.3090    47.6030 ca         1 QOL      -0.041000
     16 C5          60.0340    17.1700    46.8170 ca         1 QOL      -0.132000
     17 C4          60.2380    16.0220    46.0390 ca         1 QOL      -0.060000
     18 C3          59.2800    15.0000    46.0400 ca         1 QOL      -0.203000
     19 C2          58.1170    15.1150    46.8160 ca         1 QOL       0.336000
     20 N           57.2120    14.0690    46.7740 nv         1 QOL      -1.083000
     21 H1          60.0460    23.9890    51.0560 ho         1 QOL       0.444000
     22 H2          61.3020    23.6520    49.1430 h1         1 QOL       0.030450
     23 H3          59.5720    23.4110    48.8600 h1         1 QOL       0.030450
     24 H4          60.8760    21.6340    47.8380 hc         1 QOL       0.082700
     25 H5          61.8460    20.7470    50.6000 h1         1 QOL       0.030450
     26 H6          62.7870    21.8190    49.5520 h1         1 QOL       0.030450
     27 H7          63.3460    19.5900    49.2850 ho         1 QOL       0.444000
     28 H8          58.5790    21.2100    48.8790 h1         1 QOL       0.050200
     29 H9          59.4160    20.4190    50.2360 h1         1 QOL       0.050200
     30 H10         57.2800    19.4310    49.7670 ha         1 QOL       0.143000
     31 H11         54.5890    16.7220    49.8590 h4         1 QOL       0.010200
     32 H12         60.7910    17.9520    46.8040 ha         1 QOL       0.141000
     33 H13         61.1390    15.9260    45.4360 ha         1 QOL       0.113000
     34 H14         59.4470    14.1120    45.4350 ha         1 QOL       0.115000
     35 H15         56.3040    14.2260    47.2100 hn         1 QOL       0.474500
     36 H16         57.2520    13.3980    46.0100 hn         1 QOL       0.474500
@<TRIPOS>BOND
     1     1     2 1   
     2     1    21 1   
     3     2     3 1   
     4     2    22 1   
     5     2    23 1   
     6     3     4 1   
     7     3     6 1   
     8     3    24 1   
     9     4     5 1   
    10     4    25 1   
    11     4    26 1   
    12     5    27 1   
    13     6     7 1   
    14     6    28 1   
    15     6    29 1   
    16     7     8 1   
    17     8     9 ar  
    18     8    15 ar  
    19     9    10 ar  
    20     9    30 1   
    21    10    11 1   
    22    10    13 ar  
    23    11    12 2   
    24    11    31 1   
    25    13    14 ar  
    26    14    15 ar  
    27    14    19 ar  
    28    15    16 ar  
    29    16    17 ar  
    30    16    32 1   
    31    17    18 ar  
    32    17    33 1   
    33    18    19 ar  
    34    18    34 1   
    35    19    20 1   
    36    20    35 1   
    37    20    36 1   
@<TRIPOS>SUBSTRUCTURE
     1 QOL         1 TEMP              0 ****  ****    0 ROOT
