@<TRIPOS>MOLECULE
QOL
   36    37     1     0     0
SMALL
abcg2


@<TRIPOS>ATOM
      1 OZ1         60.2770    22.7030    50.9890 oh         1 QOL      -0.670000
      2 CE1         60.4220    22.9280    49.5820 c3         1 QOL       0.168100
      3 CD          60.6630    21.5920    48.8910 c3         1 QOL      -0.066700
      4 CE2         61.9480    20.9300    49.3940 c3         1 QOL       0.168100
      5 OZ2         62.5570    20.1990    48.3230 oh         1 QOL      -0.670000
      6 CG          59.4270    20.7180    49.0440 c3         1 QOL       0.168600
      7 OB          59.6030    19.5170    48.2780 os         1 QOL      -0.332100
      8 C8          58.6590    18.5680    48.3470 ca         1 QOL       0.180100
      9 C9          57.4850    18.6710    49.0570 ca         1 QOL      -0.228000
     10 C10         56.5850    17.5880    49.0250 ca         1 QOL       0.281500
     11 C           55.3080    17.6460    49.7680 c          1 QOL       0.480400
     12 O           54.9450    18.5850    50.4480 o          1 QOL      -0.517100
     13 N11         56.7900    16.4670    48.3590 nb         1 QOL      -0.671000
     14 C7          57.9420    16.3440    47.6620 ca         1 QOL       0.224000
     15 C6          58.9300    17.3700    47.6110 ca         1 QOL      -0.041000
     16 C5          60.1060    17.1850    46.8640 ca         1 QOL      -0.132000
     17 C4          60.2850    16.0020    46.1780 ca         1 QOL      -0.060000
     18 C3          59.3300    14.9790    46.2120 ca         1 QOL      -0.203000
     19 C2          58.1600    15.1190    46.9450 ca         1 QOL       0.336000
     20 N           57.2300    14.1200    47.0450 nv         1 QOL      -1.083000
     21 H1          60.1430    23.5550    51.4200 ho         1 QOL       0.444000
     22 H2          61.2710    23.5900    49.3870 h1         1 QOL       0.030450
     23 H3          59.5190    23.3980    49.1780 h1         1 QOL       0.030450
     24 H4          60.8020    21.8140    47.8280 hc         1 QOL       0.082700
     25 H5          61.7310    20.2640    50.2350 h1         1 QOL       0.030450
     26 H6          62.6380    21.7030    49.7490 h1         1 QOL       0.030450
     27 H7          63.3440    19.7610    48.6700 ho         1 QOL       0.444000
     28 H8          58.5410    21.2460    48.6800 h1         1 QOL       0.050200
     29 H9          59.2730    20.4530    50.0920 h1         1 QOL       0.050200
     30 H10         57.2260    19.5470    49.6300 ha         1 QOL       0.143000
     31 H11         54.6880    16.7390    49.6550 h4         1 QOL       0.010200
     32 H12         60.8520    17.9650    46.8350 ha         1 QOL       0.141000
     33 H13         61.1870    15.8520    45.5970 ha         1 QOL       0.113000
     34 H14         59.5010    14.0610    45.6630 ha         1 QOL       0.115000
     35 H15         56.3220    14.3930    47.3890 hn         1 QOL       0.474500
     36 H16         57.2310    13.4080    46.3320 hn         1 QOL       0.474500
@<TRIPOS>BOND
     1     1     2 1   
     2     1    21 1   
     3     2     3 1   
     4     2    22 1   
     5     2    23 1   
     6     3     4 1   
     7     3     6 1   
     8     3    24 1   
     9     4     5 1   
    10     4    25 1   
    11     4    26 1   
    12     5    27 1   
    13     6     7 1   
    14     6    28 1   
    15     6    29 1   
    16     7     8 1   
    17     8     9 ar  
    18     8    15 ar  
    19     9    10 ar  
    20     9    30 1   
    21    10    11 1   
    22    10    13 ar  
    23    11    12 2   
    24    11    31 1   
    25    13    14 ar  
    26    14    15 ar  
    27    14    19 ar  
    28    15    16 ar  
    29    16    17 ar  
    30    16    32 1   
    31    17    18 ar  
    32    17    33 1   
    33    18    19 ar  
    34    18    34 1   
    35    19    20 1   
    36    20    35 1   
    37    20    36 1   
@<TRIPOS>SUBSTRUCTURE
     1 QOL         1 TEMP              0 ****  ****    0 ROOT
