@<TRIPOS>MOLECULE
QON
   39    41     1     0     0
SMALL
No Charge or Current Charge


@<TRIPOS>ATOM
      1 C11         16.4000     3.6580    15.2500 c          1 QON       0.522600
      2 C13         15.9400     4.6410    16.2870 cc         1 QON       0.235500
      3 C17         16.0760     6.0320    16.1020 cc         1 QON      -0.208000
      4 C19         14.0910     8.7150    17.5140 cx         1 QON      -0.103400
      5 C01         19.4450    -3.2370    13.8200 c3         1 QON       0.043600
      6 O03         17.1090    -3.7430    13.5590 o          1 QON      -0.594100
      7 N04         17.5390    -1.6160    14.3230 n          1 QON      -0.407800
      8 C05         16.0780    -1.3010    14.3740 c6         1 QON       0.100500
      9 C06         15.7160    -0.0530    15.2100 c6         1 QON      -0.113400
     10 C07         16.5520     1.1670    14.7900 c6         1 QON       0.113700
     11 C08         18.0350     0.8060    14.9900 c6         1 QON      -0.113400
     12 C09         18.4400    -0.4310    14.1580 c6         1 QON       0.100500
     13 N10         16.1880     2.3360    15.5970 ns         1 QON      -0.490900
     14 O12         16.9180     3.9640    14.1810 o          1 QON      -0.592100
     15 N14         15.3740     4.3300    17.4530 nd         1 QON      -0.362300
     16 O15         15.1240     5.6100    18.0710 os         1 QON      -0.078700
     17 C16         15.5620     6.5910    17.2220 cd         1 QON       0.227300
     18 C18         15.4370     8.0270    17.5750 cx         1 QON      -0.201000
     19 C20         15.1670     9.0760    16.5170 cx         1 QON      -0.103400
     20 H1          16.5040     6.5300    15.2400 ha         1 QON       0.168000
     21 H2          13.8550     9.4390    18.2900 hc         1 QON       0.081700
     22 H3          13.2400     8.1420    17.1530 hc         1 QON       0.081700
     23 H5          19.9470    -2.7940    14.6880 h1         1 QON       0.087700
     24 H6          19.5550    -4.3260    13.8700 h1         1 QON       0.087700
     25 H7          15.7200    -1.1560    13.3440 h1         1 QON       0.064200
     26 H8          15.5300    -2.1620    14.7850 h1         1 QON       0.064200
     27 H9          14.6460     0.1650    15.0940 hc         1 QON       0.059450
     28 H10         15.8770    -0.2720    16.2750 hc         1 QON       0.059450
     29 H11         16.3640     1.3930    13.7290 h1         1 QON       0.082700
     30 H12         18.2310     0.6090    16.0530 hc         1 QON       0.059450
     31 H13         18.6720     1.6560    14.7100 hc         1 QON       0.059450
     32 H14         19.4710    -0.6900    14.4300 h1         1 QON       0.064200
     33 H15         18.4500    -0.1530    13.0930 h1         1 QON       0.064200
     34 H16         15.7510     2.1810    16.5000 hn         1 QON       0.333500
     35 H17         16.0920     8.3130    18.3950 hc         1 QON       0.106700
     36 H18         15.0280     8.7510    15.4880 hc         1 QON       0.081700
     37 H19         15.6540    10.0430    16.6240 hc         1 QON       0.081700
     38 Cl1         20.2820    -2.6630    12.2980 cl         1 QON      -0.262000
     39 C02         17.9430    -2.8960    13.8630 c          1 QON       0.600100
@<TRIPOS>BOND
     1     1     2 1   
     2     1    13 1   
     3     1    14 2   
     4     2     3 1   
     5     2    15 2   
     6     3    17 2   
     7     3    20 1   
     8     4    18 1   
     9     4    19 1   
    10     4    21 1   
    11     4    22 1   
    12     5    23 1   
    13     5    24 1   
    14     5    38 1   
    15     5    39 1   
    16     6    39 2   
    17     7     8 1   
    18     7    12 1   
    19     7    39 1   
    20     8     9 1   
    21     8    25 1   
    22     8    26 1   
    23     9    10 1   
    24     9    27 1   
    25     9    28 1   
    26    10    11 1   
    27    10    13 1   
    28    10    29 1   
    29    11    12 1   
    30    11    30 1   
    31    11    31 1   
    32    12    32 1   
    33    12    33 1   
    34    13    34 1   
    35    15    16 1   
    36    16    17 1   
    37    17    18 1   
    38    18    19 1   
    39    18    35 1   
    40    19    36 1   
    41    19    37 1   
@<TRIPOS>SUBSTRUCTURE
     1 QON         1 TEMP              0 ****  ****    0 ROOT
