@<TRIPOS>MOLECULE
QON
   39    41     1     0     0
SMALL
abcg2


@<TRIPOS>ATOM
      1 C11         16.1470     3.5810    15.0740 c          1 QON       0.522600
      2 C13         15.9180     4.5680    16.1750 cc         1 QON       0.235500
      3 C17         15.6350     5.9450    16.0210 cc         1 QON      -0.208000
      4 C19         14.2380     8.6400    17.2130 cx         1 QON      -0.103400
      5 C01         19.4300    -2.9200    14.4990 c3         1 QON       0.043600
      6 O03         17.1930    -3.5720    14.9410 o          1 QON      -0.594100
      7 N04         17.4680    -1.4940    14.0630 n          1 QON      -0.407800
      8 C05         16.0330    -1.2100    14.0700 c6         1 QON       0.100500
      9 C06         15.7290    -0.0160    14.9720 c6         1 QON      -0.113400
     10 C07         16.5560     1.2010    14.5600 c6         1 QON       0.113700
     11 C08         18.0460     0.8500    14.5020 c6         1 QON      -0.113400
     12 C09         18.2850    -0.3690    13.6130 c6         1 QON       0.100500
     13 N10         16.3060     2.3090    15.4680 ns         1 QON      -0.490900
     14 O12         16.1700     3.9620    13.9040 o          1 QON      -0.592100
     15 N14         15.9640     4.2130    17.4380 nd         1 QON      -0.362300
     16 O15         15.7040     5.3750    18.1570 os         1 QON      -0.078700
     17 C16         15.5090     6.4040    17.2980 cd         1 QON       0.227300
     18 C18         15.2200     7.7040    17.8940 cx         1 QON      -0.201000
     19 C20         15.6930     8.9690    17.2040 cx         1 QON      -0.103400
     20 H1          15.5420     6.4960    15.1030 ha         1 QON       0.168000
     21 H2          13.5820     9.2060    17.8590 hc         1 QON       0.081700
     22 H3          13.7900     8.2890    16.2930 hc         1 QON       0.081700
     23 H5          20.0140    -2.0880    14.8810 h1         1 QON       0.087700
     24 H6          19.6320    -3.8170    15.0720 h1         1 QON       0.087700
     25 H7          15.7250    -0.9920    13.0430 h1         1 QON       0.064200
     26 H8          15.5090    -2.0980    14.4060 h1         1 QON       0.064200
     27 H9          14.6650     0.2200    14.9160 hc         1 QON       0.059450
     28 H10         15.9600    -0.2800    16.0080 hc         1 QON       0.059450
     29 H11         16.2370     1.5320    13.5700 h1         1 QON       0.082700
     30 H12         18.4070     0.6370    15.5130 hc         1 QON       0.059450
     31 H13         18.6120     1.6990    14.1140 hc         1 QON       0.059450
     32 H14         19.3350    -0.6340    13.6070 h1         1 QON       0.064200
     33 H15         18.0030    -0.1400    12.5810 h1         1 QON       0.064200
     34 H16         16.3020     2.1200    16.4610 hn         1 QON       0.333500
     35 H17         15.2260     7.7020    18.9750 hc         1 QON       0.106700
     36 H18         16.2380     8.8440    16.2780 hc         1 QON       0.081700
     37 H19         16.0490     9.7640    17.8450 hc         1 QON       0.081700
     38 CL1         20.0050    -3.2450    12.8110 cl         1 QON      -0.262000
     39 C02         17.9270    -2.6770    14.5160 c          1 QON       0.600100
@<TRIPOS>BOND
     1     1     2 1   
     2     1    13 1   
     3     1    14 2   
     4     2     3 1   
     5     2    15 2   
     6     3    17 2   
     7     3    20 1   
     8     4    18 1   
     9     4    19 1   
    10     4    21 1   
    11     4    22 1   
    12     5    23 1   
    13     5    24 1   
    14     5    38 1   
    15     5    39 1   
    16     6    39 2   
    17     7     8 1   
    18     7    12 1   
    19     7    39 1   
    20     8     9 1   
    21     8    25 1   
    22     8    26 1   
    23     9    10 1   
    24     9    27 1   
    25     9    28 1   
    26    10    11 1   
    27    10    13 1   
    28    10    29 1   
    29    11    12 1   
    30    11    30 1   
    31    11    31 1   
    32    12    32 1   
    33    12    33 1   
    34    13    34 1   
    35    15    16 1   
    36    16    17 1   
    37    17    18 1   
    38    18    19 1   
    39    18    35 1   
    40    19    36 1   
    41    19    37 1   
@<TRIPOS>SUBSTRUCTURE
     1 QON         1 TEMP              0 ****  ****    0 ROOT
