@<TRIPOS>MOLECULE
QOO
   57    60     1     0     0
SMALL
No Charge or Current Charge


@<TRIPOS>ATOM
      1 N1         -20.7780     6.1150    32.6360 nh         1 QOO      -0.799400
      2 N3         -17.3080     4.2260    25.0580 nb         1 QOO      -0.639000
      3 C4         -19.3660     6.7360    34.6570 c6         1 QOO       0.209300
      4 C5         -19.5790     5.7570    33.4600 c6         1 QOO       0.196800
      5 C6         -21.4170     5.1300    31.8470 ca         1 QOO       0.308000
      6 C7         -21.5890     5.3020    30.4580 ca         1 QOO      -0.158000
      7 C8         -22.2210     4.3130    29.6800 ca         1 QOO      -0.033300
      8 C10        -21.0880     4.1200    27.4510 c          1 QOO       0.600100
      9 C13        -16.5510     5.3370    25.1900 ca         1 QOO       0.339900
     10 C15        -16.1120     7.5800    26.0560 ca         1 QOO      -0.078000
     11 C17        -17.7460     8.6570    27.5020 ca         1 QOO      -0.089000
     12 C20        -22.6870     3.1410    30.3010 ca         1 QOO      -0.113000
     13 C21        -22.5220     2.9670    31.6830 ca         1 QOO       0.157000
     14 C22        -21.8910     3.9550    32.4510 ca         1 QOO      -0.140000
     15 O2         -17.3780     9.1400    35.5660 o          1 QOO      -0.539000
     16 O1         -19.3750    10.6000    35.0370 o          1 QOO      -0.539000
     17 C1         -19.6380     8.8020    36.9780 c3         1 QOO      -0.346400
     18 C          -21.1860     8.8810    36.9720 c3         1 QOO      -0.064100
     19 N          -19.3270     8.1650    34.2310 n3         1 QOO      -0.772500
     20 C3         -20.7830     7.5590    32.2330 c6         1 QOO       0.196800
     21 C2         -20.5410     8.5240    33.4370 c6         1 QOO       0.209300
     22 Cl         -23.1110     1.5010    32.4570 cl         1 QOO      -0.213000
     23 C9         -22.3800     4.5090    28.1770 c3         1 QOO      -0.111100
     24 O          -20.8180     2.9530    27.1950 o          1 QOO      -0.558100
     25 N2         -20.2510     5.1890    27.1630 ns         1 QOO      -0.155000
     26 C11        -18.9860     5.2530    26.5060 ca         1 QOO      -0.067000
     27 C19        -18.1860     6.4150    26.6310 ca         1 QOO      -0.034000
     28 C18        -18.5810     7.5300    27.4070 ca         1 QOO      -0.112000
     29 C16        -16.5140     8.6830    26.8280 ca         1 QOO      -0.110000
     30 C14        -16.9450     6.4490    25.9580 ca         1 QOO      -0.082000
     31 C12        -18.4980     4.1910    25.7030 ca         1 QOO       0.309900
     32 H1         -20.1800     6.5680    35.3760 h1         1 QOO       0.061450
     33 H2         -18.4290     6.4580    35.1610 h1         1 QOO       0.061450
     34 H3         -19.6680     4.7370    33.8600 h1         1 QOO       0.054450
     35 H4         -18.6800     5.7780    32.8280 h1         1 QOO       0.054450
     36 H5         -21.2180     6.2000    29.9750 ha         1 QOO       0.115000
     37 H7         -15.1560     7.6060    25.5380 ha         1 QOO       0.120000
     38 H8         -18.0550     9.5120    28.1000 ha         1 QOO       0.115000
     39 H9         -23.1730     2.3640    29.7170 ha         1 QOO       0.133000
     40 H10        -21.7800     3.8120    33.5210 ha         1 QOO       0.132000
     41 H11        -19.2940     7.7900    37.2100 h1         1 QOO       0.099200
     42 H12        -19.2390     9.4860    37.7350 h1         1 QOO       0.099200
     43 H13        -21.5770     8.6620    37.9730 hc         1 QOO       0.046700
     44 H14        -21.5310     9.8830    36.6880 hc         1 QOO       0.046700
     45 H15        -21.6240     8.1520    36.2810 hc         1 QOO       0.046700
     46 H16        -19.9980     7.7360    31.4830 h1         1 QOO       0.054450
     47 H17        -21.7450     7.8230    31.7700 h1         1 QOO       0.054450
     48 H18        -20.4550     9.5410    33.0290 h1         1 QOO       0.061450
     49 H19        -21.4360     8.5110    34.0730 h1         1 QOO       0.061450
     50 H20        -22.6090     5.5640    27.9840 hc         1 QOO       0.067200
     51 H21        -23.1990     3.8840    27.8030 hc         1 QOO       0.067200
     52 H22        -20.5990     6.0860    27.4740 hn         1 QOO       0.150000
     53 H23        -19.5260     7.5390    27.9430 ha         1 QOO       0.106000
     54 H24        -15.8710     9.5570    26.9040 ha         1 QOO       0.119000
     55 H25        -19.0770     3.2840    25.5450 h4         1 QOO       0.047100
     56 S          -18.8300     9.2970    35.4340 s6         1 QOO       1.233100
     57 H6         -15.5980     5.3340    24.6610 h4         1 QOO       0.022100
@<TRIPOS>BOND
     1     1     4 1   
     2     1     5 1   
     3     1    20 1   
     4     2     9 ar  
     5     2    31 ar  
     6     3     4 1   
     7     3    19 1   
     8     3    32 1   
     9     3    33 1   
    10     4    34 1   
    11     4    35 1   
    12     5     6 ar  
    13     5    14 ar  
    14     6     7 ar  
    15     6    36 1   
    16     7    12 ar  
    17     7    23 1   
    18     8    23 1   
    19     8    24 2   
    20     8    25 1   
    21     9    30 ar  
    22     9    57 1   
    23    10    29 ar  
    24    10    30 ar  
    25    10    37 1   
    26    11    28 ar  
    27    11    29 ar  
    28    11    38 1   
    29    12    13 ar  
    30    12    39 1   
    31    13    14 ar  
    32    13    22 1   
    33    14    40 1   
    34    15    56 2   
    35    16    56 2   
    36    17    18 1   
    37    17    41 1   
    38    17    42 1   
    39    17    56 1   
    40    18    43 1   
    41    18    44 1   
    42    18    45 1   
    43    19    21 1   
    44    19    56 1   
    45    20    21 1   
    46    20    46 1   
    47    20    47 1   
    48    21    48 1   
    49    21    49 1   
    50    23    50 1   
    51    23    51 1   
    52    25    26 1   
    53    25    52 1   
    54    26    27 ar  
    55    26    31 ar  
    56    27    28 ar  
    57    27    30 ar  
    58    28    53 1   
    59    29    54 1   
    60    31    55 1   
@<TRIPOS>SUBSTRUCTURE
     1 QOO         1 TEMP              0 ****  ****    0 ROOT
