@<TRIPOS>MOLECULE
QOO
   57    60     1     0     0
SMALL
abcg2


@<TRIPOS>ATOM
      1 N1         -20.9830     5.9550    33.3580 nh         1 QOO      -0.799400
      2 N3         -16.7990     4.0590    25.2080 nb         1 QOO      -0.639000
      3 C4         -20.2290     6.2040    35.6860 c6         1 QOO       0.209300
      4 C5         -20.1960     5.3460    34.4330 c6         1 QOO       0.196800
      5 C6         -21.3820     5.1260    32.3030 ca         1 QOO       0.308000
      6 C7         -21.2560     5.5070    30.9600 ca         1 QOO      -0.158000
      7 C8         -21.7090     4.6880    29.9280 ca         1 QOO      -0.033300
      8 C10        -20.1310     4.7540    27.9570 c          1 QOO       0.600100
      9 C13        -16.3410     5.1070    24.5650 ca         1 QOO       0.339900
     10 C15        -16.4170     7.4900    23.9170 ca         1 QOO      -0.078000
     11 C17        -18.1580     8.8900    24.8160 ca         1 QOO      -0.089000
     12 C20        -22.2970     3.4610    30.2140 ca         1 QOO      -0.113000
     13 C21        -22.4120     3.0860    31.5460 ca         1 QOO       0.157000
     14 C22        -21.9740     3.8810    32.5860 ca         1 QOO      -0.140000
     15 O2         -17.9480     7.6610    37.0180 o          1 QOO      -0.539000
     16 O1         -18.7260     9.7370    35.8880 o          1 QOO      -0.539000
     17 C1         -20.1740     8.7240    37.8490 c3         1 QOO      -0.346400
     18 C          -21.4280     9.4910    37.4590 c3         1 QOO      -0.064100
     19 N          -19.7890     7.5620    35.3510 n3         1 QOO      -0.772500
     20 C3         -20.5340     7.3060    33.0470 c6         1 QOO       0.196800
     21 C2         -20.5940     8.1790    34.2920 c6         1 QOO       0.209300
     22 CL         -23.1660     1.5450    31.9270 cl         1 QOO      -0.213000
     23 C9         -21.5130     5.1160    28.5000 c3         1 QOO      -0.111100
     24 O          -19.4440     3.8630    28.4320 o          1 QOO      -0.558100
     25 N2         -19.7630     5.5030    26.8770 ns         1 QOO      -0.155000
     26 C11        -18.5940     5.3920    26.1070 ca         1 QOO      -0.067000
     27 C19        -18.1070     6.5500    25.4290 ca         1 QOO      -0.034000
     28 C18        -18.6940     7.8350    25.5130 ca         1 QOO      -0.112000
     29 C16        -17.0150     8.7200    24.0060 ca         1 QOO      -0.110000
     30 C14        -16.9450     6.3850    24.6240 ca         1 QOO      -0.082000
     31 C12        -17.9160     4.2010    25.9650 ca         1 QOO       0.309900
     32 H1         -21.2460     6.2280    36.0940 h1         1 QOO       0.061450
     33 H2         -19.5580     5.7820    36.4310 h1         1 QOO       0.061450
     34 H3         -20.5930     4.3660    34.6770 h1         1 QOO       0.054450
     35 H4         -19.1520     5.2210    34.1090 h1         1 QOO       0.054450
     36 H5         -20.7850     6.4440    30.7010 ha         1 QOO       0.115000
     37 H7         -15.5340     7.3430    23.3060 ha         1 QOO       0.120000
     38 H8         -18.6150     9.8680    24.8930 ha         1 QOO       0.115000
     39 H9         -22.6510     2.8140    29.4240 ha         1 QOO       0.133000
     40 H10        -22.1220     3.5560    33.6040 ha         1 QOO       0.132000
     41 H11        -20.4010     7.7320    38.2400 h1         1 QOO       0.099200
     42 H12        -19.5810     9.2560    38.5940 h1         1 QOO       0.099200
     43 H13        -22.0230     9.6730    38.3540 hc         1 QOO       0.046700
     44 H14        -21.1810    10.4530    37.0110 hc         1 QOO       0.046700
     45 H15        -22.0420     8.9240    36.7590 hc         1 QOO       0.046700
     46 H16        -19.5120     7.3090    32.6430 h1         1 QOO       0.054450
     47 H17        -21.1980     7.7420    32.3030 h1         1 QOO       0.054450
     48 H18        -20.1950     9.1650    34.0710 h1         1 QOO       0.061450
     49 H19        -21.6360     8.2780    34.6120 h1         1 QOO       0.061450
     50 H20        -21.6740     6.1910    28.3960 hc         1 QOO       0.067200
     51 H21        -22.2400     4.6200    27.8520 hc         1 QOO       0.067200
     52 H22        -20.4000     6.2400    26.6170 hn         1 QOO       0.150000
     53 H23        -19.5590     8.0070    26.1380 ha         1 QOO       0.106000
     54 H24        -16.6110     9.5660    23.4650 ha         1 QOO       0.119000
     55 H25        -18.2690     3.3140    26.4690 h4         1 QOO       0.047100
     56 S          -19.0350     8.4600    36.4930 s6         1 QOO       1.233100
     57 H6         -15.4520     4.9740    23.9560 h4         1 QOO       0.022100
@<TRIPOS>BOND
     1     1     4 1   
     2     1     5 1   
     3     1    20 1   
     4     2     9 ar  
     5     2    31 ar  
     6     3     4 1   
     7     3    19 1   
     8     3    32 1   
     9     3    33 1   
    10     4    34 1   
    11     4    35 1   
    12     5     6 ar  
    13     5    14 ar  
    14     6     7 ar  
    15     6    36 1   
    16     7    12 ar  
    17     7    23 1   
    18     8    23 1   
    19     8    24 2   
    20     8    25 1   
    21     9    30 ar  
    22     9    57 1   
    23    10    29 ar  
    24    10    30 ar  
    25    10    37 1   
    26    11    28 ar  
    27    11    29 ar  
    28    11    38 1   
    29    12    13 ar  
    30    12    39 1   
    31    13    14 ar  
    32    13    22 1   
    33    14    40 1   
    34    15    56 2   
    35    16    56 2   
    36    17    18 1   
    37    17    41 1   
    38    17    42 1   
    39    17    56 1   
    40    18    43 1   
    41    18    44 1   
    42    18    45 1   
    43    19    21 1   
    44    19    56 1   
    45    20    21 1   
    46    20    46 1   
    47    20    47 1   
    48    21    48 1   
    49    21    49 1   
    50    23    50 1   
    51    23    51 1   
    52    25    26 1   
    53    25    52 1   
    54    26    27 ar  
    55    26    31 ar  
    56    27    28 ar  
    57    27    30 ar  
    58    28    53 1   
    59    29    54 1   
    60    31    55 1   
@<TRIPOS>SUBSTRUCTURE
     1 QOO         1 TEMP              0 ****  ****    0 ROOT
