@<TRIPOS>MOLECULE
QOR
   50    53     1     0     0
SMALL
abcg2


@<TRIPOS>ATOM
      1 C18        -49.2390   -29.4490     6.6930 ca         1 QOR       0.566900
      2 C17        -47.8240   -29.4290     6.5250 ca         1 QOR       0.227900
      3 C15        -48.0810   -29.5050     4.2580 ca         1 QOR       0.188500
      4 C14        -47.4710   -29.5370     2.8970 c          1 QOR       0.510600
      5 C12        -45.3530   -29.6080     1.6430 c5         1 QOR       0.170000
      6 C11        -45.1620   -28.2580     0.9730 ca         1 QOR      -0.068300
      7 C10        -46.0890   -27.5170     0.2480 ca         1 QOR      -0.113000
      8 C20        -51.1970   -29.4910     8.2200 c6         1 QOR       0.246500
      9 C02        -43.7400   -30.9950     3.1460 c          1 QOR       0.715000
     10 C03        -43.8890   -30.0620     1.9290 c5         1 QOR      -0.202700
     11 C04        -43.0690   -28.7550     2.0230 c5         1 QOR      -0.016100
     12 C05        -43.8770   -27.7810     1.2120 ca         1 QOR      -0.086300
     13 C06        -43.5010   -26.5330     0.7250 ca         1 QOR       0.116100
     14 C08        -44.4180   -25.7790    -0.0080 ca         1 QOR      -0.207000
     15 C09        -45.7000   -26.2730    -0.2420 ca         1 QOR      -0.103000
     16 C21        -51.5090   -28.7980     9.5440 c6         1 QOR      -0.128900
     17 C22        -52.9830   -28.9700     9.8930 c6         1 QOR       0.156600
     18 C24        -53.1470   -30.9930     8.6840 c6         1 QOR       0.156600
     19 C25        -51.6830   -30.9440     8.2700 c6         1 QOR      -0.128900
     20 C27        -49.4560   -29.5320     4.4240 ca         1 QOR       0.377900
     21 N13        -46.1320   -29.4960     2.8710 ns         1 QOR      -0.453900
     22 N16        -47.2720   -29.4560     5.3390 nb         1 QOR      -0.554000
     23 N19        -49.7750   -29.3890     7.9290 nu         1 QOR      -0.939100
     24 N26        -50.0420   -29.5090     5.6220 nb         1 QOR      -0.747000
     25 O01        -43.9140   -30.4710     4.2820 o          1 QOR      -0.725000
     26 O07        -42.2310   -26.0980     0.9890 oh         1 QOR      -0.539100
     27 O23        -53.3610   -30.3450     9.9380 os         1 QOR      -0.465000
     28 O28        -48.1770   -29.5960     1.8810 o          1 QOR      -0.672100
     29 O29        -43.4730   -32.2000     2.9240 o          1 QOR      -0.725000
     30 H171       -47.1760   -29.3880     7.3950 h4         1 QOR       0.026100
     31 H121       -45.8650   -30.3150     0.9890 h1         1 QOR       0.068700
     32 H101       -47.0850   -27.8980     0.0720 ha         1 QOR       0.131000
     33 H201       -51.7270   -28.9750     7.4170 h1         1 QOR       0.079700
     34 H031       -43.5630   -30.6070     1.0430 hc         1 QOR       0.049700
     35 H041       -42.9910   -28.4250     3.0620 hc         1 QOR       0.062700
     36 H042       -42.0540   -28.8850     1.6450 hc         1 QOR       0.062700
     37 H081       -44.1240   -24.8100    -0.3960 ha         1 QOR       0.093000
     38 H091       -46.3970   -25.6760    -0.8180 ha         1 QOR       0.096000
     39 H211       -50.8950   -29.2360    10.3380 hc         1 QOR       0.057700
     40 H212       -51.2690   -27.7340     9.4820 hc         1 QOR       0.057700
     41 H221       -53.2000   -28.5580    10.8780 h1         1 QOR       0.044950
     42 H222       -53.6050   -28.4470     9.1540 h1         1 QOR       0.044950
     43 H241       -53.4850   -32.0220     8.8090 h1         1 QOR       0.044950
     44 H242       -53.7720   -30.5140     7.9180 h1         1 QOR       0.044950
     45 H252       -51.0780   -31.4990     8.9940 hc         1 QOR       0.057700
     46 H251       -51.5590   -31.4190     7.2940 hc         1 QOR       0.057700
     47 H271       -50.1050   -29.5770     3.5590 h4         1 QOR       0.042100
     48 H131       -45.6170   -29.5510     3.7460 hn         1 QOR       0.389500
     49 H191       -49.1380   -29.4390     8.7100 hn         1 QOR       0.488000
     50 H071       -42.0920   -25.2270     0.5930 ho         1 QOR       0.443000
@<TRIPOS>BOND
     1     1     2 ar  
     2     1    23 1   
     3     1    24 ar  
     4     2    22 ar  
     5     2    30 1   
     6     3     4 1   
     7     3    20 ar  
     8     3    22 ar  
     9     4    21 1   
    10     4    28 2   
    11     5     6 1   
    12     5    10 1   
    13     5    21 1   
    14     5    31 1   
    15     6     7 ar  
    16     6    12 ar  
    17     7    15 ar  
    18     7    32 1   
    19     8    16 1   
    20     8    19 1   
    21     8    23 1   
    22     8    33 1   
    23     9    10 1   
    24     9    25 1   
    25     9    29 1   
    26    10    11 1   
    27    10    34 1   
    28    11    12 1   
    29    11    35 1   
    30    11    36 1   
    31    12    13 ar  
    32    13    14 ar  
    33    13    26 1   
    34    14    15 ar  
    35    14    37 1   
    36    15    38 1   
    37    16    17 1   
    38    16    39 1   
    39    16    40 1   
    40    17    27 1   
    41    17    41 1   
    42    17    42 1   
    43    18    19 1   
    44    18    27 1   
    45    18    43 1   
    46    18    44 1   
    47    19    45 1   
    48    19    46 1   
    49    20    24 ar  
    50    20    47 1   
    51    21    48 1   
    52    23    49 1   
    53    26    50 1   
@<TRIPOS>SUBSTRUCTURE
     1 QOR         1 TEMP              0 ****  ****    0 ROOT
