@<TRIPOS>MOLECULE
QOR
   50    53     1     0     0
SMALL
No Charge or Current Charge


@<TRIPOS>ATOM
      1 C18        -49.2280   -29.2430     6.7730 ca         1 QOR       0.566900
      2 C17        -47.8050   -29.3110     6.6300 ca         1 QOR       0.227900
      3 C15        -48.0360   -29.3750     4.3320 ca         1 QOR       0.188500
      4 C14        -47.4590   -29.4440     2.9280 c          1 QOR       0.510600
      5 C12        -45.4250   -29.6290     1.5630 c5         1 QOR       0.170000
      6 C11        -45.1390   -28.2910     0.9210 ca         1 QOR      -0.068300
      7 C10        -46.0180   -27.5360     0.1260 ca         1 QOR      -0.113000
      8 C20        -51.2960   -29.4030     8.2700 c6         1 QOR       0.246500
      9 C02        -43.7700   -31.1050     3.0200 c          1 QOR       0.715000
     10 C03        -43.9350   -30.1070     1.8410 c5         1 QOR      -0.202700
     11 C04        -43.0880   -28.7910     2.0650 c5         1 QOR      -0.016100
     12 C05        -43.8620   -27.8310     1.1960 ca         1 QOR      -0.086300
     13 C06        -43.4190   -26.5940     0.6940 ca         1 QOR       0.116100
     14 C08        -44.2880   -25.8270    -0.1030 ca         1 QOR      -0.207000
     15 C09        -45.5870   -26.2980    -0.3880 ca         1 QOR      -0.103000
     16 C21        -51.6710   -28.7960     9.6420 c6         1 QOR      -0.128900
     17 C22        -53.1360   -29.1420     9.9930 c6         1 QOR       0.156600
     18 C24        -53.0670   -31.1720     8.6720 c6         1 QOR       0.156600
     19 C25        -51.6010   -30.9210     8.2560 c6         1 QOR      -0.128900
     20 C27        -49.4480   -29.3030     4.4910 ca         1 QOR       0.377900
     21 N13        -46.0810   -29.5270     2.8660 ns         1 QOR      -0.453900
     22 N16        -47.1940   -29.3780     5.4150 nb         1 QOR      -0.554000
     23 N19        -49.8640   -29.1690     8.0130 nu         1 QOR      -0.939100
     24 N26        -50.0570   -29.2360     5.7100 nb         1 QOR      -0.747000
     25 O01        -43.9780   -30.7350     4.1670 o          1 QOR      -0.725000
     26 O07        -42.1640   -26.1360     0.9690 oh         1 QOR      -0.539100
     27 O23        -53.3190   -30.5750     9.9630 os         1 QOR      -0.465000
     28 O28        -48.1600   -29.4310     1.9200 o          1 QOR      -0.672100
     29 O29        -43.3790   -32.2350     2.7710 o          1 QOR      -0.725000
     30 H171       -47.1540   -29.3120     7.5020 h4         1 QOR       0.026100
     31 H121       -45.9460   -30.3150     0.8800 h1         1 QOR       0.068700
     32 H101       -47.0200   -27.9010    -0.0880 ha         1 QOR       0.131000
     33 H201       -51.9160   -28.9060     7.5070 h1         1 QOR       0.079700
     34 H031       -43.5880   -30.6110     0.9320 hc         1 QOR       0.049700
     35 H041       -43.0870   -28.4590     3.1090 hc         1 QOR       0.062700
     36 H042       -42.0450   -28.9130     1.7530 hc         1 QOR       0.062700
     37 H081       -43.9660   -24.8690    -0.5030 ha         1 QOR       0.093000
     38 H091       -46.2580   -25.7030    -1.0030 ha         1 QOR       0.096000
     39 H211       -51.0090   -29.1840    10.4290 hc         1 QOR       0.057700
     40 H212       -51.5410   -27.7060     9.6230 hc         1 QOR       0.057700
     41 H221       -53.3800   -28.7710    10.9980 h1         1 QOR       0.044950
     42 H222       -53.8240   -28.6710     9.2760 h1         1 QOR       0.044950
     43 H241       -53.2620   -32.2520     8.7330 h1         1 QOR       0.044950
     44 H242       -53.7560   -30.7410     7.9300 h1         1 QOR       0.044950
     45 H252       -50.9300   -31.4520     8.9450 hc         1 QOR       0.057700
     46 H251       -51.4240   -31.3370     7.2560 hc         1 QOR       0.057700
     47 H271       -50.1100   -29.2990     3.6260 h4         1 QOR       0.042100
     48 H131       -45.5830   -29.6120     3.7500 hn         1 QOR       0.389500
     49 H191       -49.2350   -29.1520     8.8140 hn         1 QOR       0.488000
     50 H071       -42.0530   -25.2660     0.5310 ho         1 QOR       0.443000
@<TRIPOS>BOND
     1     1     2 ar  
     2     1    23 1   
     3     1    24 ar  
     4     2    22 ar  
     5     2    30 1   
     6     3     4 1   
     7     3    20 ar  
     8     3    22 ar  
     9     4    21 1   
    10     4    28 2   
    11     5     6 1   
    12     5    10 1   
    13     5    21 1   
    14     5    31 1   
    15     6     7 ar  
    16     6    12 ar  
    17     7    15 ar  
    18     7    32 1   
    19     8    16 1   
    20     8    19 1   
    21     8    23 1   
    22     8    33 1   
    23     9    10 1   
    24     9    25 1   
    25     9    29 1   
    26    10    11 1   
    27    10    34 1   
    28    11    12 1   
    29    11    35 1   
    30    11    36 1   
    31    12    13 ar  
    32    13    14 ar  
    33    13    26 1   
    34    14    15 ar  
    35    14    37 1   
    36    15    38 1   
    37    16    17 1   
    38    16    39 1   
    39    16    40 1   
    40    17    27 1   
    41    17    41 1   
    42    17    42 1   
    43    18    19 1   
    44    18    27 1   
    45    18    43 1   
    46    18    44 1   
    47    19    45 1   
    48    19    46 1   
    49    20    24 ar  
    50    20    47 1   
    51    21    48 1   
    52    23    49 1   
    53    26    50 1   
@<TRIPOS>SUBSTRUCTURE
     1 QOR         1 TEMP              0 ****  ****    0 ROOT
