@<TRIPOS>MOLECULE
QOS
   17    17     1     0     0
SMALL
No Charge or Current Charge


@<TRIPOS>ATOM
      1 CAB          1.1470     1.2030    -0.0650 cc         1 QOS      -0.091400
      2 CAC          1.5760    -0.1170    -0.0020 cd         1 QOS       0.023400
      3 CAE         -0.6580    -0.7940     0.0300 cc         1 QOS       0.363300
      4 CAF         -1.1930     0.6060    -0.0370 c          1 QOS       0.416700
      5 CAG          3.0320    -0.5060     0.0170 c3         1 QOS      -0.021900
      6 CAH         -1.7150    -1.8710     0.0820 c3         1 QOS      -0.119400
      7 NAA         -0.1950     1.5350    -0.0810 ns         1 QOS      -0.356100
      8 NAD          0.6370    -1.1600     0.0480 nd         1 QOS      -0.527300
      9 OAI         -2.3730     0.9400    -0.0530 o          1 QOS      -0.546000
     10 H1           1.8030     2.0690    -0.1070 h4         1 QOS       0.206000
     11 H2           3.2800    -1.0580     0.9310 hc         1 QOS       0.047700
     12 H3           3.2800    -1.1440    -0.8390 hc         1 QOS       0.047700
     13 H4           3.6840     0.3750    -0.0260 hc         1 QOS       0.047700
     14 H5          -1.2690    -2.8710     0.1300 hc         1 QOS       0.059367
     15 H6          -2.3530    -1.7460     0.9650 hc         1 QOS       0.059367
     16 H7          -2.3530    -1.8310    -0.8080 hc         1 QOS       0.059367
     17 H8          -0.4880     2.5060    -0.1280 hn         1 QOS       0.330500
@<TRIPOS>BOND
     1     1     2 2   
     2     1     7 1   
     3     1    10 1   
     4     2     5 1   
     5     2     8 1   
     6     3     4 1   
     7     3     6 1   
     8     3     8 2   
     9     4     7 1   
    10     4     9 2   
    11     5    11 1   
    12     5    12 1   
    13     5    13 1   
    14     6    14 1   
    15     6    15 1   
    16     6    16 1   
    17     7    17 1   
@<TRIPOS>SUBSTRUCTURE
     1 QOS         1 TEMP              0 ****  ****    0 ROOT
