@<TRIPOS>MOLECULE
QOS
   17    17     1     0     0
SMALL
bcc


@<TRIPOS>ATOM
      1 CAB          1.1550     1.2140    -0.0660 cc         1 QOS      -0.041400
      2 CAC          1.5420    -0.0830    -0.0050 cd         1 QOS       0.023400
      3 CAE         -0.6640    -0.7840     0.0300 cc         1 QOS       0.363300
      4 CAF         -1.1660     0.5920    -0.0300 c          1 QOS       0.559200
      5 CAG          2.9750    -0.5030     0.0170 c3         1 QOS      -0.021900
      6 CAH         -1.6810    -1.8740     0.0760 c3         1 QOS      -0.119400
      7 NAA         -0.1680     1.5210    -0.0760 ns         1 QOS      -0.423100
      8 NAD          0.5970    -1.0690     0.0420 nd         1 QOS      -0.527300
      9 OAI         -2.3540     0.8950    -0.0390 o          1 QOS      -0.621500
     10 H1           1.8430     2.0450    -0.1060 h4         1 QOS       0.156000
     11 H2           3.2150    -1.0310     0.9420 hc         1 QOS       0.047700
     12 H3           3.1980    -1.1790    -0.8090 hc         1 QOS       0.047700
     13 H4           3.6410     0.3550    -0.0600 hc         1 QOS       0.047700
     14 H5          -1.1940    -2.8450     0.1160 hc         1 QOS       0.059367
     15 H6          -2.3290    -1.7700     0.9490 hc         1 QOS       0.059367
     16 H7          -2.3280    -1.8420    -0.8020 hc         1 QOS       0.059367
     17 H8          -0.4400     2.4950    -0.1210 hn         1 QOS       0.330500
@<TRIPOS>BOND
     1     1     2 2   
     2     1     7 1   
     3     1    10 1   
     4     2     5 1   
     5     2     8 1   
     6     3     4 1   
     7     3     6 1   
     8     3     8 2   
     9     4     7 1   
    10     4     9 2   
    11     5    11 1   
    12     5    12 1   
    13     5    13 1   
    14     6    14 1   
    15     6    15 1   
    16     6    16 1   
    17     7    17 1   
@<TRIPOS>SUBSTRUCTURE
     1 QOS         1 TEMP              0 ****  ****    0 ROOT
