@<TRIPOS>MOLECULE
QOU
   50    53     1     0     0
SMALL
No Charge or Current Charge


@<TRIPOS>ATOM
      1 N1         -19.7890     5.2580    27.7220 ns         1 QOU      -0.159000
      2 C4         -22.1340     6.2780    28.9720 c6         1 QOU      -0.081400
      3 C5         -21.2230     6.9080    30.0500 c6         1 QOU       0.204800
      4 C6         -21.7990     4.9050    31.4620 ca         1 QOU       0.326000
      5 C7         -21.8430     4.3500    32.7500 ca         1 QOU      -0.174000
      6 C8         -22.1130     2.9840    32.9260 ca         1 QOU      -0.052000
      7 C10        -22.2930     2.7190    30.5130 ca         1 QOU      -0.049000
      8 C13        -18.4900     5.2200    27.1310 ca         1 QOU      -0.077000
      9 C15        -15.9520     5.1160    26.0250 ca         1 QOU       0.346900
     10 C17        -16.1860     7.3910    25.1650 ca         1 QOU      -0.078000
     11 C20        -18.7670     7.5350    26.2760 ca         1 QOU      -0.112000
     12 C21        -18.0050     6.3540    26.4330 ca         1 QOU      -0.030000
     13 O1         -20.2900     3.0750    28.1980 o          1 QOU      -0.563100
     14 C12        -20.6030     4.2590    28.2460 c          1 QOU       0.600100
     15 C3         -21.9680     4.7120    28.8850 c6         1 QOU      -0.059700
     16 C11        -22.0360     4.0980    30.3200 ca         1 QOU      -0.126300
     17 C9         -22.3350     2.1710    31.8050 ca         1 QOU       0.078000
     18 Cl         -22.6610     0.4550    32.0190 cl         1 QOU      -0.218000
     19 N          -21.5360     6.2680    31.3310 nu         1 QOU      -0.944200
     20 C2         -23.1000     4.1390    27.9470 c3         1 QOU      -0.073400
     21 C1         -24.5510     4.2410    28.4760 c3         1 QOU       0.157600
     22 O          -25.4040     3.5760    27.5290 os         1 QOU      -0.471000
     23 C          -26.7970     3.5740    27.8840 c3         1 QOU       0.146900
     24 C19        -18.2390     8.6300    25.5710 ca         1 QOU      -0.089000
     25 C18        -16.9500     8.5600    25.0170 ca         1 QOU      -0.112000
     26 C16        -16.7100     6.2910    25.8710 ca         1 QOU      -0.087000
     27 N2         -16.3990     4.0320    26.6970 nb         1 QOU      -0.644000
     28 C14        -17.6390     4.0900    27.2350 ca         1 QOU       0.327900
     29 H1         -20.1830     6.1870    27.7790 hn         1 QOU       0.156000
     30 H2         -21.9620     6.7550    27.9980 hc         1 QOU       0.057200
     31 H3         -23.1670     6.5330    29.2380 hc         1 QOU       0.057200
     32 H4         -20.1640     6.7520    29.7970 h1         1 QOU       0.049700
     33 H5         -21.3920     7.9940    30.1030 h1         1 QOU       0.049700
     34 H6         -21.6690     4.9780    33.6190 ha         1 QOU       0.117000
     35 H7         -22.1460     2.5560    33.9250 ha         1 QOU       0.129000
     36 H8         -22.4540     2.0570    29.6670 ha         1 QOU       0.126000
     37 H9         -14.9500     5.0390    25.6030 h4         1 QOU       0.022100
     38 H10        -15.1880     7.3420    24.7330 ha         1 QOU       0.120000
     39 H11        -19.7680     7.6210    26.6880 ha         1 QOU       0.109000
     40 H12        -21.3570     6.7830    32.1950 hn         1 QOU       0.469000
     41 H13        -22.9080     3.0840    27.7200 hc         1 QOU       0.055700
     42 H14        -23.0580     4.6510    26.9780 hc         1 QOU       0.055700
     43 H15        -24.8440     5.2930    28.5800 h1         1 QOU       0.034700
     44 H16        -24.6260     3.7620    29.4610 h1         1 QOU       0.034700
     45 H17        -27.3850     3.0510    27.1180 h1         1 QOU       0.032033
     46 H18        -26.9550     3.0630    28.8430 h1         1 QOU       0.032033
     47 H19        -27.1810     4.5990    27.9680 h1         1 QOU       0.032033
     48 H20        -18.8300     9.5360    25.4540 ha         1 QOU       0.115000
     49 H21        -16.5450     9.4100    24.4720 ha         1 QOU       0.119000
     50 H22        -17.9350     3.1990    27.7840 h4         1 QOU       0.042100
@<TRIPOS>BOND
     1     1     8 1   
     2     1    14 1   
     3     1    29 1   
     4     2     3 1   
     5     2    15 1   
     6     2    30 1   
     7     2    31 1   
     8     3    19 1   
     9     3    32 1   
    10     3    33 1   
    11     4     5 ar  
    12     4    16 ar  
    13     4    19 1   
    14     5     6 ar  
    15     5    34 1   
    16     6    17 ar  
    17     6    35 1   
    18     7    16 ar  
    19     7    17 ar  
    20     7    36 1   
    21     8    12 ar  
    22     8    28 ar  
    23     9    26 ar  
    24     9    27 ar  
    25     9    37 1   
    26    10    25 ar  
    27    10    26 ar  
    28    10    38 1   
    29    11    12 ar  
    30    11    24 ar  
    31    11    39 1   
    32    12    26 ar  
    33    13    14 2   
    34    14    15 1   
    35    15    16 1   
    36    15    20 1   
    37    17    18 1   
    38    19    40 1   
    39    20    21 1   
    40    20    41 1   
    41    20    42 1   
    42    21    22 1   
    43    21    43 1   
    44    21    44 1   
    45    22    23 1   
    46    23    45 1   
    47    23    46 1   
    48    23    47 1   
    49    24    25 ar  
    50    24    48 1   
    51    25    49 1   
    52    27    28 ar  
    53    28    50 1   
@<TRIPOS>SUBSTRUCTURE
     1 QOU         1 TEMP              0 ****  ****    0 ROOT
