@<TRIPOS>MOLECULE
QOU
   50    53     1     0     0
SMALL
abcg2


@<TRIPOS>ATOM
      1 N1         -19.9140     4.9990    27.5510 ns         1 QOU      -0.159000
      2 C4         -21.9010     6.4430    29.4700 c6         1 QOU      -0.081400
      3 C5         -21.3130     6.8830    30.7970 c6         1 QOU       0.204800
      4 C6         -22.0890     4.7720    31.7460 ca         1 QOU       0.326000
      5 C7         -22.3440     3.9980    32.8910 ca         1 QOU      -0.174000
      6 C8         -22.4920     2.6250    32.8150 ca         1 QOU      -0.052000
      7 C10        -22.1350     2.7480    30.4350 ca         1 QOU      -0.049000
      8 C13        -18.6140     5.0630    27.0120 ca         1 QOU      -0.077000
      9 C15        -16.0840     5.0880    25.9660 ca         1 QOU       0.346900
     10 C17        -16.5400     7.2100    24.7790 ca         1 QOU      -0.078000
     11 C20        -19.1180     7.2470    25.8840 ca         1 QOU      -0.112000
     12 C21        -18.2600     6.1610    26.1800 ca         1 QOU      -0.030000
     13 O1         -19.3930     4.3790    29.6720 o          1 QOU      -0.563100
     14 C12        -20.2310     4.7130    28.8470 c          1 QOU       0.600100
     15 C3         -21.7190     4.9210    29.2200 c6         1 QOU      -0.059700
     16 C11        -21.9980     4.1330    30.4960 ca         1 QOU      -0.126300
     17 C9         -22.3810     2.0060    31.5760 ca         1 QOU       0.078000
     18 CL         -22.5530     0.2600    31.4560 cl         1 QOU      -0.218000
     19 N          -21.9660     6.1440    31.8660 nu         1 QOU      -0.944200
     20 C2         -22.6540     4.4890    28.0610 c3         1 QOU      -0.073400
     21 C1         -24.1220     4.3810    28.4450 c3         1 QOU       0.157600
     22 O          -24.8750     4.2800    27.2430 os         1 QOU      -0.471000
     23 C          -26.2600     4.1060    27.4890 c3         1 QOU       0.146900
     24 C19        -18.6930     8.2580    25.0580 ca         1 QOU      -0.089000
     25 C18        -17.3980     8.2410    24.4950 ca         1 QOU      -0.112000
     26 C16        -16.9480     6.1560    25.6280 ca         1 QOU      -0.087000
     27 N2         -16.4280     4.0930    26.7510 nb         1 QOU      -0.644000
     28 C14        -17.6850     4.0800    27.2590 ca         1 QOU       0.327900
     29 H1         -20.6570     5.3310    26.9570 hn         1 QOU       0.156000
     30 H2         -21.4480     7.0030    28.6520 hc         1 QOU       0.057200
     31 H3         -22.9680     6.6730    29.4690 hc         1 QOU       0.057200
     32 H4         -20.2270     6.7250    30.8030 h1         1 QOU       0.049700
     33 H5         -21.4940     7.9460    30.9520 h1         1 QOU       0.049700
     34 H6         -22.4180     4.4930    33.8520 ha         1 QOU       0.117000
     35 H7         -22.6840     2.0440    33.7070 ha         1 QOU       0.129000
     36 H8         -22.0480     2.2420    29.4840 ha         1 QOU       0.126000
     37 H9         -15.0770     5.0790    25.5570 h4         1 QOU       0.022100
     38 H10        -15.5400     7.1880    24.3630 ha         1 QOU       0.120000
     39 H11        -20.1080     7.2920    26.3160 ha         1 QOU       0.109000
     40 H12        -21.7630     6.4680    32.7990 hn         1 QOU       0.469000
     41 H13        -22.3280     3.5360    27.6420 hc         1 QOU       0.055700
     42 H14        -22.5920     5.2300    27.2600 hc         1 QOU       0.055700
     43 H15        -24.4530     5.2580    29.0140 h1         1 QOU       0.034700
     44 H16        -24.3020     3.4990    29.0670 h1         1 QOU       0.034700
     45 H17        -26.7580     4.0400    26.5230 h1         1 QOU       0.032033
     46 H18        -26.4480     3.1860    28.0560 h1         1 QOU       0.032033
     47 H19        -26.6710     4.9530    28.0510 h1         1 QOU       0.032033
     48 H20        -19.3560     9.0860    24.8400 ha         1 QOU       0.115000
     49 H21        -17.0870     9.0480    23.8440 ha         1 QOU       0.119000
     50 H22        -17.9420     3.2380    27.8850 h4         1 QOU       0.042100
@<TRIPOS>BOND
     1     1     8 1   
     2     1    14 1   
     3     1    29 1   
     4     2     3 1   
     5     2    15 1   
     6     2    30 1   
     7     2    31 1   
     8     3    19 1   
     9     3    32 1   
    10     3    33 1   
    11     4     5 ar  
    12     4    16 ar  
    13     4    19 1   
    14     5     6 ar  
    15     5    34 1   
    16     6    17 ar  
    17     6    35 1   
    18     7    16 ar  
    19     7    17 ar  
    20     7    36 1   
    21     8    12 ar  
    22     8    28 ar  
    23     9    26 ar  
    24     9    27 ar  
    25     9    37 1   
    26    10    25 ar  
    27    10    26 ar  
    28    10    38 1   
    29    11    12 ar  
    30    11    24 ar  
    31    11    39 1   
    32    12    26 ar  
    33    13    14 2   
    34    14    15 1   
    35    15    16 1   
    36    15    20 1   
    37    17    18 1   
    38    19    40 1   
    39    20    21 1   
    40    20    41 1   
    41    20    42 1   
    42    21    22 1   
    43    21    43 1   
    44    21    44 1   
    45    22    23 1   
    46    23    45 1   
    47    23    46 1   
    48    23    47 1   
    49    24    25 ar  
    50    24    48 1   
    51    25    49 1   
    52    27    28 ar  
    53    28    50 1   
@<TRIPOS>SUBSTRUCTURE
     1 QOU         1 TEMP              0 ****  ****    0 ROOT
