@<TRIPOS>MOLECULE
QOV
   36    38     1     0     0
SMALL
abcg2


@<TRIPOS>ATOM
      1 N1          55.3860    48.5420   -56.6540 na         1 QOV       0.304400
      2 C2          53.0190    48.2010   -50.6500 ca         1 QOV       0.240100
      3 N3          56.3750    49.4310   -56.8150 nc         1 QOV      -0.595100
      4 C5          54.8970    49.5830   -50.0270 ca         1 QOV      -0.015000
      5 C6          54.4530    49.0420   -55.7920 cc         1 QOV      -0.082000
      6 C7          53.3200    48.2600   -55.4780 cc         1 QOV       0.284000
      7 C8          55.3040    47.3170   -57.2260 cc         1 QOV      -0.076000
      8 C9          53.2090    47.0300   -56.0710 cd         1 QOV      -0.059000
      9 C10         54.2180    46.5530   -56.9360 cd         1 QOV      -0.147000
     10 C11         55.9980    50.4370   -56.0460 cd         1 QOV       0.548300
     11 C12         51.9180    46.7560   -49.1230 c3         1 QOV       0.155900
     12 C3          54.9620    50.0830   -51.3150 ca         1 QOV       0.063000
     13 C1          54.0700    49.6560   -52.2840 ca         1 QOV       0.011000
     14 C4          53.9280    48.6480   -49.6950 ca         1 QOV      -0.210000
     15 O2          52.0480    47.3180   -50.4190 os         1 QOV      -0.337100
     16 C           53.1150    48.7120   -51.9540 ca         1 QOV      -0.317500
     17 S           51.9470    48.1080   -53.1570 sy         1 QOV       1.190600
     18 O           52.1490    46.6800   -53.2970 o          1 QOV      -0.523500
     19 O1          50.6440    48.6370   -52.8120 o          1 QOV      -0.523500
     20 N           52.3460    48.7880   -54.6140 nu         1 QOV      -0.913100
     21 C13         56.8090    51.6690   -55.8960 c3         1 QOV      -0.101400
     22 N2          54.8280    50.2510   -55.4060 nd         1 QOV      -0.432300
     23 H1          55.5950    49.9140   -49.2710 ha         1 QOV       0.130000
     24 H2          56.1110    47.0280   -57.8830 h4         1 QOV       0.166000
     25 H3          52.3400    46.4150   -55.8880 ha         1 QOV       0.154000
     26 H4          54.1260    45.5770   -57.3890 ha         1 QOV       0.143000
     27 H5          51.0770    46.0710   -49.1730 h1         1 QOV       0.050367
     28 H6          52.8130    46.2030   -48.8330 h1         1 QOV       0.050367
     29 H7          51.7090    47.5220   -48.3730 h1         1 QOV       0.050367
     30 H8          54.1410    50.0660   -53.2840 ha         1 QOV       0.160000
     31 H9          53.8950    48.2770   -48.6800 ha         1 QOV       0.125000
     32 H10         52.1490    49.7810   -54.6900 hn         1 QOV       0.519000
     33 H11         57.7120    51.6200   -56.4980 hc         1 QOV       0.060367
     34 H12         56.2360    52.5460   -56.1980 hc         1 QOV       0.060367
     35 H13         57.0930    51.8100   -54.8520 hc         1 QOV       0.060367
     36 CL          56.1700    51.2510   -51.7330 cl         1 QOV      -0.195000
@<TRIPOS>BOND
     1     1     3 1   
     2     1     5 1   
     3     1     7 1   
     4     2    14 ar  
     5     2    15 1   
     6     2    16 ar  
     7     3    10 2   
     8     4    12 ar  
     9     4    14 ar  
    10     4    23 1   
    11     5     6 1   
    12     5    22 2   
    13     6     8 2   
    14     6    20 1   
    15     7     9 2   
    16     7    24 1   
    17     8     9 1   
    18     8    25 1   
    19     9    26 1   
    20    10    21 1   
    21    10    22 1   
    22    11    15 1   
    23    11    27 1   
    24    11    28 1   
    25    11    29 1   
    26    12    13 ar  
    27    12    36 1   
    28    13    16 ar  
    29    13    30 1   
    30    14    31 1   
    31    16    17 1   
    32    17    18 2   
    33    17    19 2   
    34    17    20 1   
    35    20    32 1   
    36    21    33 1   
    37    21    34 1   
    38    21    35 1   
@<TRIPOS>SUBSTRUCTURE
     1 QOV         1 TEMP              0 ****  ****    0 ROOT
