@<TRIPOS>MOLECULE
QOV
   36    38     1     0     0
SMALL
No Charge or Current Charge


@<TRIPOS>ATOM
      1 N1          55.2740    48.2830   -55.5150 na         1 QOV       0.304400
      2 C2          53.2870    48.2260   -51.4420 ca         1 QOV       0.240100
      3 N3          56.2870    49.0780   -55.9100 nc         1 QOV      -0.595100
      4 C5          55.3230    49.4010   -50.7520 ca         1 QOV      -0.015000
      5 C6          54.0980    48.9430   -55.3140 cc         1 QOV      -0.082000
      6 C7          52.9330    48.2630   -54.8590 cc         1 QOV       0.284000
      7 C8          55.4260    46.9090   -55.3070 cc         1 QOV      -0.076000
      8 C9          53.0210    46.9100   -54.6410 cd         1 QOV      -0.059000
      9 C10         54.2800    46.2410   -54.8720 cd         1 QOV      -0.147000
     10 C11         55.6550    50.2470   -55.9390 cd         1 QOV       0.548300
     11 C12         52.9150    45.8480   -50.8660 c3         1 QOV       0.155900
     12 C3          54.9010    50.5450   -51.4430 ca         1 QOV       0.063000
     13 C1          53.6750    50.5400   -52.1250 ca         1 QOV       0.011000
     14 C4          54.5210    48.2470   -50.7510 ca         1 QOV      -0.210000
     15 O2          52.5100    47.0870   -51.4750 os         1 QOV      -0.337100
     16 C           52.8590    49.3860   -52.1260 ca         1 QOV      -0.317500
     17 S           51.3430    49.4370   -53.0940 sy         1 QOV       1.190600
     18 O           50.4020    48.3780   -52.7220 o          1 QOV      -0.523500
     19 O1          50.9200    50.8270   -53.2740 o          1 QOV      -0.523500
     20 N           51.8210    49.0300   -54.6430 nu         1 QOV      -0.913100
     21 C13         56.3640    51.5130   -56.3170 c3         1 QOV      -0.101400
     22 N2          54.3120    50.2200   -55.5810 nd         1 QOV      -0.432300
     23 H1          56.2730    49.4070   -50.2250 ha         1 QOV       0.130000
     24 H2          56.3970    46.4710   -55.4930 h4         1 QOV       0.166000
     25 H3          52.1550    46.3590   -54.2920 ha         1 QOV       0.154000
     26 H4          54.3400    45.1710   -54.6930 ha         1 QOV       0.143000
     27 H5          52.1520    45.0770   -51.0310 h1         1 QOV       0.050367
     28 H6          53.8570    45.4900   -51.3000 h1         1 QOV       0.050367
     29 H7          53.0460    45.9680   -49.7840 h1         1 QOV       0.050367
     30 H8          53.3770    51.4360   -52.6660 ha         1 QOV       0.160000
     31 H9          54.8820    47.3770   -50.2130 ha         1 QOV       0.125000
     32 H10         51.9430    49.9550   -55.0340 hn         1 QOV       0.519000
     33 H11         57.0200    51.3530   -57.1800 hc         1 QOV       0.060367
     34 H12         55.6500    52.3020   -56.5790 hc         1 QOV       0.060367
     35 H13         56.9780    51.8740   -55.4850 hc         1 QOV       0.060367
     36 Cl          55.9150    51.9830   -51.4680 cl         1 QOV      -0.195000
@<TRIPOS>BOND
     1     1     3 1   
     2     1     5 1   
     3     1     7 1   
     4     2    14 ar  
     5     2    15 1   
     6     2    16 ar  
     7     3    10 2   
     8     4    12 ar  
     9     4    14 ar  
    10     4    23 1   
    11     5     6 1   
    12     5    22 2   
    13     6     8 2   
    14     6    20 1   
    15     7     9 2   
    16     7    24 1   
    17     8     9 1   
    18     8    25 1   
    19     9    26 1   
    20    10    21 1   
    21    10    22 1   
    22    11    15 1   
    23    11    27 1   
    24    11    28 1   
    25    11    29 1   
    26    12    13 ar  
    27    12    36 1   
    28    13    16 ar  
    29    13    30 1   
    30    14    31 1   
    31    16    17 1   
    32    17    18 2   
    33    17    19 2   
    34    17    20 1   
    35    20    32 1   
    36    21    33 1   
    37    21    34 1   
    38    21    35 1   
@<TRIPOS>SUBSTRUCTURE
     1 QOV         1 TEMP              0 ****  ****    0 ROOT
