@<TRIPOS>MOLECULE
QOX
   18    19     1     0     0
SMALL
No Charge or Current Charge


@<TRIPOS>ATOM
      1 C03         33.6090   -40.1050     6.9110 ca         1 QOX      -0.158300
      2 C04         34.7180   -39.7970     6.1060 ca         1 QOX      -0.092000
      3 C05         34.5650   -39.7490     4.7110 ca         1 QOX      -0.113000
      4 C06         33.3080   -40.0080     4.1320 ca         1 QOX      -0.021000
      5 C07         33.1610   -39.9580     2.7330 ca         1 QOX      -0.108000
      6 C08         31.9120   -40.2150     2.1430 ca         1 QOX      -0.084000
      7 C09         30.8060   -40.5220     2.9510 ca         1 QOX      -0.112000
      8 C10         30.9440   -40.5740     4.3490 ca         1 QOX      -0.060000
      9 C11         32.1970   -40.3180     4.9550 ca         1 QOX      -0.129000
     10 N02         32.3600   -40.3640     6.3530 na         1 QOX       0.448300
     11 O01         31.4070   -40.6320     7.1000 o          1 QOX      -0.524000
     12 H1          33.6830   -40.1530     7.9960 h4         1 QOX       0.167000
     13 H2          35.6880   -39.5980     6.5590 ha         1 QOX       0.134000
     14 H3          35.4220   -39.5110     4.0840 ha         1 QOX       0.129000
     15 H4          34.0130   -39.7210     2.1000 ha         1 QOX       0.121000
     16 H5          31.8030   -40.1750     1.0620 ha         1 QOX       0.121000
     17 H6          29.8390   -40.7210     2.4940 ha         1 QOX       0.124000
     18 H7          30.0720   -40.8150     4.9560 ha         1 QOX       0.157000
@<TRIPOS>BOND
     1     1     2 ar  
     2     1    10 2   
     3     1    12 1   
     4     2     3 ar  
     5     2    13 1   
     6     3     4 ar  
     7     3    14 1   
     8     4     5 ar  
     9     4     9 ar  
    10     5     6 ar  
    11     5    15 1   
    12     6     7 ar  
    13     6    16 1   
    14     7     8 ar  
    15     7    17 1   
    16     8     9 ar  
    17     8    18 1   
    18     9    10 1   
    19    10    11 1   
@<TRIPOS>SUBSTRUCTURE
     1 QOX         1 TEMP              0 ****  ****    0 ROOT
