@<TRIPOS>MOLECULE
QOX
   18    19     1     0     0
SMALL
abcg2


@<TRIPOS>ATOM
      1 C03         33.5790   -40.1090     6.8610 ca         1 QOX      -0.158300
      2 C04         34.6970   -39.8000     6.0810 ca         1 QOX      -0.092000
      3 C05         34.5950   -39.7410     4.7170 ca         1 QOX      -0.113000
      4 C06         33.3440   -39.9980     4.1140 ca         1 QOX      -0.021000
      5 C07         33.1500   -39.9600     2.7120 ca         1 QOX      -0.108000
      6 C08         31.9190   -40.2160     2.1660 ca         1 QOX      -0.084000
      7 C09         30.8210   -40.5210     2.9980 ca         1 QOX      -0.112000
      8 C10         30.9670   -40.5680     4.3630 ca         1 QOX      -0.060000
      9 C11         32.2250   -40.3090     4.9300 ca         1 QOX      -0.129000
     10 N02         32.3800   -40.3580     6.3190 na         1 QOX       0.448300
     11 O01         31.3630   -40.6440     7.0660 o          1 QOX      -0.524000
     12 H1          33.6070   -40.1690     7.9380 h4         1 QOX       0.167000
     13 H2          35.6330   -39.6100     6.5880 ha         1 QOX       0.134000
     14 H3          35.4490   -39.5040     4.0960 ha         1 QOX       0.129000
     15 H4          33.9990   -39.7250     2.0820 ha         1 QOX       0.121000
     16 H5          31.7840   -40.1840     1.0930 ha         1 QOX       0.121000
     17 H6          29.8540   -40.7190     2.5560 ha         1 QOX       0.124000
     18 H7          30.1400   -40.8000     5.0150 ha         1 QOX       0.157000
@<TRIPOS>BOND
     1     1     2 ar  
     2     1    10 2   
     3     1    12 1   
     4     2     3 ar  
     5     2    13 1   
     6     3     4 ar  
     7     3    14 1   
     8     4     5 ar  
     9     4     9 ar  
    10     5     6 ar  
    11     5    15 1   
    12     6     7 ar  
    13     6    16 1   
    14     7     8 ar  
    15     7    17 1   
    16     8     9 ar  
    17     8    18 1   
    18     9    10 1   
    19    10    11 1   
@<TRIPOS>SUBSTRUCTURE
     1 QOX         1 TEMP              0 ****  ****    0 ROOT
