@<TRIPOS>MOLECULE
QOY
   33    35     1     0     0
SMALL
abcg2


@<TRIPOS>ATOM
      1 N1         -56.5860    57.0690   -47.9420 na         1 QOY       0.301400
      2 C2         -53.5410    51.0330   -46.8780 ca         1 QOY       0.241100
      3 N3         -57.2900    57.6700   -48.9360 nc         1 QOY      -0.590100
      4 C5         -55.7640    50.1080   -47.0990 ca         1 QOY      -0.011000
      5 C6         -51.7200    49.7810   -45.9630 c3         1 QOY       0.156900
      6 C7         -55.5910    56.2990   -48.4900 cc         1 QOY      -0.095000
      7 C8         -54.7310    55.5670   -47.6390 cc         1 QOY       0.324000
      8 C9         -56.8070    57.1740   -46.6020 cc         1 QOY      -0.095000
      9 C10        -54.9400    55.6590   -46.2830 cd         1 QOY      -0.132000
     10 C11        -55.9850    56.4670   -45.7760 cd         1 QOY      -0.124000
     11 C12        -56.6780    57.2270   -50.0300 cd         1 QOY       0.536200
     12 S          -52.8640    53.5730   -47.6720 sy         1 QOY       1.224600
     13 O1         -51.9220    53.2320   -48.7060 o          1 QOY      -0.525500
     14 C          -54.0090    52.2280   -47.4590 ca         1 QOY      -0.325500
     15 C4         -54.4390    49.9800   -46.7020 ca         1 QOY      -0.204000
     16 C3         -56.1990    51.2870   -47.6840 ca         1 QOY       0.065000
     17 CL         -57.8630    51.4460   -48.1940 cl         1 QOY      -0.196000
     18 C1         -55.3280    52.3500   -47.8710 ca         1 QOY       0.014000
     19 N          -53.7440    54.8160   -48.2920 nu         1 QOY      -0.918100
     20 N2         -55.6390    56.3910   -49.8240 nd         1 QOY      -0.411300
     21 H1         -56.4500    49.2860   -46.9540 ha         1 QOY       0.133000
     22 H2         -50.6660    49.9760   -45.7880 h1         1 QOY       0.053367
     23 H3         -52.2200    49.5590   -45.0190 h1         1 QOY       0.053367
     24 H4         -51.8340    48.9420   -46.6530 h1         1 QOY       0.053367
     25 H5         -57.6210    57.8090   -46.2900 h4         1 QOY       0.167000
     26 H6         -54.3100    55.1160   -45.5960 ha         1 QOY       0.159000
     27 H7         -56.1360    56.5300   -44.7090 ha         1 QOY       0.141000
     28 H8         -57.0080    57.5290   -51.0120 h5         1 QOY       0.075800
     29 H9         -54.1130    49.0530   -46.2560 ha         1 QOY       0.127000
     30 H10        -55.6850    53.2550   -48.3350 ha         1 QOY       0.137000
     31 H11        -53.7930    54.8190   -49.3040 hn         1 QOY       0.534000
     32 O          -52.2400    50.9840   -46.5410 os         1 QOY      -0.344100
     33 O2         -52.3830    53.9770   -46.3770 o          1 QOY      -0.525500
@<TRIPOS>BOND
     1     1     3 1   
     2     1     6 1   
     3     1     8 1   
     4     2    14 ar  
     5     2    15 ar  
     6     2    32 1   
     7     3    11 2   
     8     4    15 ar  
     9     4    16 ar  
    10     4    21 1   
    11     5    22 1   
    12     5    23 1   
    13     5    24 1   
    14     5    32 1   
    15     6     7 1   
    16     6    20 2   
    17     7     9 2   
    18     7    19 1   
    19     8    10 2   
    20     8    25 1   
    21     9    10 1   
    22     9    26 1   
    23    10    27 1   
    24    11    20 1   
    25    11    28 1   
    26    12    13 2   
    27    12    14 1   
    28    12    19 1   
    29    12    33 2   
    30    14    18 ar  
    31    15    29 1   
    32    16    17 1   
    33    16    18 ar  
    34    18    30 1   
    35    19    31 1   
@<TRIPOS>SUBSTRUCTURE
     1 QOY         1 TEMP              0 ****  ****    0 ROOT
