@<TRIPOS>MOLECULE
QOY
   33    35     1     0     0
SMALL
No Charge or Current Charge


@<TRIPOS>ATOM
      1 N1         -56.3540    55.8820   -47.2020 na         1 QOY       0.301400
      2 C2         -53.9710    51.7840   -47.1080 ca         1 QOY       0.241100
      3 N3         -57.4690    56.2640   -47.8500 nc         1 QOY      -0.590100
      4 C5         -56.1360    50.8510   -47.7760 ca         1 QOY      -0.011000
      5 C6         -53.0280    51.3640   -44.8590 c3         1 QOY       0.156900
      6 C7         -55.2840    55.6800   -48.0170 cc         1 QOY      -0.095000
      7 C8         -54.0280    55.2540   -47.5000 cc         1 QOY       0.324000
      8 C9         -56.3090    55.6980   -45.8170 cc         1 QOY      -0.095000
      9 C10        -53.9200    55.0650   -46.1460 cd         1 QOY      -0.132000
     10 C11        -55.0750    55.2900   -45.3090 cd         1 QOY      -0.124000
     11 C12        -57.0220    56.2860   -49.1080 cd         1 QOY       0.536200
     12 S          -52.5020    53.5150   -48.7900 sy         1 QOY       1.224600
     13 O1         -52.3860    53.6060   -50.2460 o          1 QOY      -0.525500
     14 C          -53.8760    52.4360   -48.3580 ca         1 QOY      -0.325500
     15 C4         -55.1070    50.9880   -46.8290 ca         1 QOY      -0.204000
     16 C3         -56.0420    51.5080   -49.0100 ca         1 QOY       0.065000
     17 Cl         -57.3380    51.3530   -50.1910 cl         1 QOY      -0.196000
     18 C1         -54.9200    52.2960   -49.3010 ca         1 QOY       0.014000
     19 N          -53.0290    55.0500   -48.4070 nu         1 QOY      -0.918100
     20 N2         -55.6800    55.9290   -49.2530 nd         1 QOY      -0.411300
     21 H1         -57.0080    50.2410   -47.5520 ha         1 QOY       0.133000
     22 H2         -52.1330    51.6340   -44.2850 h1         1 QOY       0.053367
     23 H3         -53.9050    51.7280   -44.3080 h1         1 QOY       0.053367
     24 H4         -53.0740    50.2690   -44.9160 h1         1 QOY       0.053367
     25 H5         -57.2110    55.8810   -45.2500 h4         1 QOY       0.167000
     26 H6         -52.9770    54.7450   -45.7170 ha         1 QOY       0.159000
     27 H7         -54.9810    55.1330   -44.2390 ha         1 QOY       0.141000
     28 H8         -57.6320    56.5520   -49.9630 h5         1 QOY       0.075800
     29 H9         -55.2160    50.4710   -45.8810 ha         1 QOY       0.127000
     30 H10        -54.8750    52.8060   -50.2610 ha         1 QOY       0.137000
     31 H11        -53.3080    55.3700   -49.3250 hn         1 QOY       0.534000
     32 O          -52.9700    51.9450   -46.1730 os         1 QOY      -0.344100
     33 O2         -51.3350    53.3150   -47.9270 o          1 QOY      -0.525500
@<TRIPOS>BOND
     1     1     3 1   
     2     1     6 1   
     3     1     8 1   
     4     2    14 ar  
     5     2    15 ar  
     6     2    32 1   
     7     3    11 2   
     8     4    15 ar  
     9     4    16 ar  
    10     4    21 1   
    11     5    22 1   
    12     5    23 1   
    13     5    24 1   
    14     5    32 1   
    15     6     7 1   
    16     6    20 2   
    17     7     9 2   
    18     7    19 1   
    19     8    10 2   
    20     8    25 1   
    21     9    10 1   
    22     9    26 1   
    23    10    27 1   
    24    11    20 1   
    25    11    28 1   
    26    12    13 2   
    27    12    14 1   
    28    12    19 1   
    29    12    33 2   
    30    14    18 ar  
    31    15    29 1   
    32    16    17 1   
    33    16    18 ar  
    34    18    30 1   
    35    19    31 1   
@<TRIPOS>SUBSTRUCTURE
     1 QOY         1 TEMP              0 ****  ****    0 ROOT
