@<TRIPOS>MOLECULE
QOZ
   61    64     1     0     0
SMALL
abcg2


@<TRIPOS>ATOM
      1 CAO         -3.7290     3.5820    14.9980 ca         1 QOZ      -0.181500
      2 CAQ         -4.1730     2.3710    15.4940 ca         1 QOZ       0.023500
      3 CBC         -5.5320     2.0930    15.5600 ca         1 QOZ      -0.311500
      4 SBG         -6.0630     0.5520    16.2350 sy         1 QOZ       1.133600
      5 OAC         -5.2840     0.2470    17.4270 o          1 QOZ      -0.547500
      6 OAD         -7.5140     0.5920    16.3520 o          1 QOZ      -0.547500
      7 CAR         -6.4600     3.0330    15.1340 ca         1 QOZ       0.023500
      8 CAP         -6.0190     4.2450    14.6400 ca         1 QOZ      -0.181500
      9 CAZ         -4.6540     4.5390    14.5620 ca         1 QOZ       0.043000
     10 NAX         -4.3060     5.7880    14.0630 ns         1 QOZ      -0.158000
     11 C           -3.0680     6.2770    13.7570 c          1 QOZ       0.602100
     12 O           -2.0370     5.6640    13.9250 o          1 QOZ      -0.536100
     13 CA          -3.1190     7.6700    13.1400 c3         1 QOZ       0.096800
     14 N           -1.8430     8.3240    13.1850 n3         1 QOZ      -0.709600
     15 CAT         -1.7050     9.3740    12.1960 c6         1 QOZ       0.170300
     16 CAV         -0.2940     9.9310    12.2110 c6         1 QOZ       0.160300
     17 CAS         -1.5190     8.8420    14.4990 c6         1 QOZ       0.170300
     18 CAU         -0.1140     9.4070    14.5140 c6         1 QOZ       0.160300
     19 NBF          0.0340    10.4650    13.5250 n3         1 QOZ      -0.716600
     20 CBD          1.3670    11.0450    13.5750 c3         1 QOZ       0.276100
     21 CBB          1.6410    11.7130    14.9110 ca         1 QOZ      -0.083300
     22 CAM          2.9280    11.6880    15.4390 ca         1 QOZ      -0.096750
     23 CAI          3.2240    12.3530    16.6210 ca         1 QOZ      -0.113750
     24 CAF          2.2300    13.0480    17.2970 ca         1 QOZ      -0.107500
     25 CAJ          0.9410    13.0720    16.7800 ca         1 QOZ      -0.113750
     26 CAN          0.6490    12.4120    15.5950 ca         1 QOZ      -0.096750
     27 CBA          1.5930    12.0770    12.4870 ca         1 QOZ      -0.083300
     28 CAK          2.7440    12.0200    11.7110 ca         1 QOZ      -0.096750
     29 CAG          3.0020    12.9880    10.7470 ca         1 QOZ      -0.113750
     30 CAE          2.1030    14.0230    10.5440 ca         1 QOZ      -0.107500
     31 CAH          0.9430    14.0830    11.3100 ca         1 QOZ      -0.113750
     32 CAL          0.6930    13.1200    12.2760 ca         1 QOZ      -0.096750
     33 NAA         -5.5390    -0.5080    15.0790 n8         1 QOZ      -1.003100
     34 H1          -2.6700     3.7730    14.9590 ha         1 QOZ       0.133500
     35 H2          -3.4430     1.6460    15.8280 ha         1 QOZ       0.137000
     36 H3          -7.5210     2.8330    15.1820 ha         1 QOZ       0.137000
     37 H4          -6.7470     4.9750    14.3080 ha         1 QOZ       0.133500
     38 H5          -5.0850     6.3970    13.8570 hn         1 QOZ       0.151000
     39 H6          -3.9270     8.2580    13.6080 h1         1 QOZ       0.048700
     40 H7          -3.4170     7.5340    12.0940 h1         1 QOZ       0.048700
     41 H9          -2.4190    10.1980    12.3640 h1         1 QOZ       0.039200
     42 H10         -1.9090     8.9650    11.2040 h1         1 QOZ       0.039200
     43 H11          0.4100     9.1350    11.9140 h1         1 QOZ       0.048450
     44 H12         -0.2260    10.7190    11.4620 h1         1 QOZ       0.048450
     45 H13         -2.2290     9.6270    14.8090 h1         1 QOZ       0.039200
     46 H14         -1.5790     8.0420    15.2400 h1         1 QOZ       0.039200
     47 H15          0.6070     8.5920    14.3320 h1         1 QOZ       0.048450
     48 H16          0.0910     9.7990    15.5100 h1         1 QOZ       0.048450
     49 H18          2.1310    10.2600    13.4360 h1         1 QOZ       0.034700
     50 H19          3.7080    11.1430    14.9180 ha         1 QOZ       0.116750
     51 H20          4.2310    12.3230    17.0170 ha         1 QOZ       0.111750
     52 H21          2.4570    13.5630    18.2210 ha         1 QOZ       0.112000
     53 H22          0.1570    13.6050    17.3030 ha         1 QOZ       0.111750
     54 H23         -0.3620    12.4250    15.2060 ha         1 QOZ       0.116750
     55 H24          3.4490    11.2090    11.8600 ha         1 QOZ       0.116750
     56 H25          3.9060    12.9270    10.1530 ha         1 QOZ       0.111750
     57 H26          2.2990    14.7770     9.7930 ha         1 QOZ       0.112000
     58 H27          0.2330    14.8850    11.1550 ha         1 QOZ       0.111750
     59 H28         -0.2140    13.1750    12.8660 ha         1 QOZ       0.116750
     60 H29         -5.4990    -1.4590    15.4350 hn         1 QOZ       0.472000
     61 H30         -6.0990    -0.4730    14.2330 hn         1 QOZ       0.472000
@<TRIPOS>BOND
     1     1     2 ar  
     2     1     9 ar  
     3     1    34 1   
     4     2     3 ar  
     5     2    35 1   
     6     3     4 1   
     7     3     7 ar  
     8     4     5 2   
     9     4     6 2   
    10     4    33 1   
    11     7     8 ar  
    12     7    36 1   
    13     8     9 ar  
    14     8    37 1   
    15     9    10 1   
    16    10    11 1   
    17    10    38 1   
    18    11    12 2   
    19    11    13 1   
    20    13    14 1   
    21    13    39 1   
    22    13    40 1   
    23    14    15 1   
    24    14    17 1   
    25    15    16 1   
    26    15    41 1   
    27    15    42 1   
    28    16    19 1   
    29    16    43 1   
    30    16    44 1   
    31    17    18 1   
    32    17    45 1   
    33    17    46 1   
    34    18    19 1   
    35    18    47 1   
    36    18    48 1   
    37    19    20 1   
    38    20    21 1   
    39    20    27 1   
    40    20    49 1   
    41    21    22 ar  
    42    21    26 ar  
    43    22    23 ar  
    44    22    50 1   
    45    23    24 ar  
    46    23    51 1   
    47    24    25 ar  
    48    24    52 1   
    49    25    26 ar  
    50    25    53 1   
    51    26    54 1   
    52    27    28 ar  
    53    27    32 ar  
    54    28    29 ar  
    55    28    55 1   
    56    29    30 ar  
    57    29    56 1   
    58    30    31 ar  
    59    30    57 1   
    60    31    32 ar  
    61    31    58 1   
    62    32    59 1   
    63    33    60 1   
    64    33    61 1   
@<TRIPOS>SUBSTRUCTURE
     1 QOZ         1 TEMP              0 ****  ****    0 ROOT
