@<TRIPOS>MOLECULE
QOZ
   61    64     1     0     0
SMALL
No Charge or Current Charge


@<TRIPOS>ATOM
      1 CAO         -3.7820     3.3750    15.2890 ca         1 QOZ      -0.181500
      2 CAQ         -4.3870     2.2880    15.9440 ca         1 QOZ       0.023500
      3 CBC         -5.7740     2.0780    15.8280 ca         1 QOZ      -0.311500
      4 SBG         -6.5400     0.6920    16.6640 sy         1 QOZ       1.133600
      5 OAC         -5.7410     0.2790    17.8170 o          1 QOZ      -0.547500
      6 OAD         -7.9870     0.8800    16.7240 o          1 QOZ      -0.547500
      7 CAR         -6.5520     2.9630    15.0590 ca         1 QOZ       0.023500
      8 CAP         -5.9390     4.0480    14.4080 ca         1 QOZ      -0.181500
      9 CAZ         -4.5530     4.2650    14.5100 ca         1 QOZ       0.043000
     10 NAX         -4.0130     5.3860    13.8250 ns         1 QOZ      -0.158000
     11 C           -2.7090     5.8240    13.6260 c          1 QOZ       0.602100
     12 O           -1.7170     5.2270    14.0340 o          1 QOZ      -0.536100
     13 CA          -2.6240     7.1530    12.8130 c3         1 QOZ       0.096800
     14 N           -1.3780     7.9860    12.9100 n3         1 QOZ      -0.709600
     15 CAT         -1.3630     9.1190    11.9360 c6         1 QOZ       0.170300
     16 CAV         -0.0480     9.9550    12.0170 c6         1 QOZ       0.160300
     17 CAS         -1.1160     8.5030    14.2900 c6         1 QOZ       0.170300
     18 CAU          0.2000     9.3390    14.3700 c6         1 QOZ       0.160300
     19 NBF          0.2170    10.4800    13.3960 n3         1 QOZ      -0.716600
     20 CBD          1.4570    11.3030    13.4810 c3         1 QOZ       0.276100
     21 CBB          1.7420    11.8360    14.8910 ca         1 QOZ      -0.083300
     22 CAM          3.0350    11.7130    15.4410 ca         1 QOZ      -0.096750
     23 CAI          3.3110    12.2030    16.7300 ca         1 QOZ      -0.113750
     24 CAF          2.2970    12.8230    17.4800 ca         1 QOZ      -0.107500
     25 CAJ          1.0070    12.9520    16.9400 ca         1 QOZ      -0.113750
     26 CAN          0.7310    12.4630    15.6510 ca         1 QOZ      -0.096750
     27 CBA          1.4890    12.4670    12.4820 ca         1 QOZ      -0.083300
     28 CAK          2.6410    12.6920    11.7020 ca         1 QOZ      -0.096750
     29 CAG          2.6860    13.7600    10.7870 ca         1 QOZ      -0.113750
     30 CAE          1.5790    14.6120    10.6460 ca         1 QOZ      -0.107500
     31 CAH          0.4270    14.3970    11.4200 ca         1 QOZ      -0.113750
     32 CAL          0.3820    13.3310    12.3350 ca         1 QOZ      -0.096750
     33 NAA         -6.3470    -0.5000    15.5620 n8         1 QOZ      -1.003100
     34 H1          -2.7120     3.5090    15.4080 ha         1 QOZ       0.133500
     35 H2          -3.7720     1.6130    16.5380 ha         1 QOZ       0.137000
     36 H3          -7.6280     2.8210    14.9610 ha         1 QOZ       0.137000
     37 H4          -6.5530     4.7240    13.8170 ha         1 QOZ       0.133500
     38 H5          -4.7170     5.9810    13.4060 hn         1 QOZ       0.151000
     39 H6          -3.4880     7.7630    13.1090 h1         1 QOZ       0.048700
     40 H7          -2.7930     6.8700    11.7660 h1         1 QOZ       0.048700
     41 H9          -2.2150     9.7890    12.1240 h1         1 QOZ       0.039200
     42 H10         -1.4740     8.7390    10.9100 h1         1 QOZ       0.039200
     43 H11          0.7890     9.3210    11.6870 h1         1 QOZ       0.048450
     44 H12         -0.1270    10.7790    11.2930 h1         1 QOZ       0.048450
     45 H13         -1.9520     9.1370    14.6210 h1         1 QOZ       0.039200
     46 H14         -1.0400     7.6720    15.0060 h1         1 QOZ       0.039200
     47 H15          1.0510     8.6680    14.1800 h1         1 QOZ       0.048450
     48 H16          0.3060     9.7030    15.4010 h1         1 QOZ       0.048450
     49 H18          2.2960    10.6420    13.2200 h1         1 QOZ       0.034700
     50 H19          3.8290    11.2370    14.8700 ha         1 QOZ       0.116750
     51 H20          4.3110    12.1040    17.1460 ha         1 QOZ       0.111750
     52 H21          2.5110    13.2020    18.4770 ha         1 QOZ       0.112000
     53 H22          0.2210    13.4310    17.5190 ha         1 QOZ       0.111750
     54 H23         -0.2720    12.5630    15.2440 ha         1 QOZ       0.116750
     55 H24          3.5060    12.0410    11.8040 ha         1 QOZ       0.116750
     56 H25          3.5790    13.9260    10.1890 ha         1 QOZ       0.111750
     57 H26          1.6130    15.4380     9.9380 ha         1 QOZ       0.112000
     58 H27         -0.4320    15.0560    11.3120 ha         1 QOZ       0.111750
     59 H28         -0.5170    13.1700    12.9250 ha         1 QOZ       0.116750
     60 H29         -7.3040    -0.8320    15.4720 hn         1 QOZ       0.472000
     61 H30         -6.1900     0.0260    14.7060 hn         1 QOZ       0.472000
@<TRIPOS>BOND
     1     1     2 ar  
     2     1     9 ar  
     3     1    34 1   
     4     2     3 ar  
     5     2    35 1   
     6     3     4 1   
     7     3     7 ar  
     8     4     5 2   
     9     4     6 2   
    10     4    33 1   
    11     7     8 ar  
    12     7    36 1   
    13     8     9 ar  
    14     8    37 1   
    15     9    10 1   
    16    10    11 1   
    17    10    38 1   
    18    11    12 2   
    19    11    13 1   
    20    13    14 1   
    21    13    39 1   
    22    13    40 1   
    23    14    15 1   
    24    14    17 1   
    25    15    16 1   
    26    15    41 1   
    27    15    42 1   
    28    16    19 1   
    29    16    43 1   
    30    16    44 1   
    31    17    18 1   
    32    17    45 1   
    33    17    46 1   
    34    18    19 1   
    35    18    47 1   
    36    18    48 1   
    37    19    20 1   
    38    20    21 1   
    39    20    27 1   
    40    20    49 1   
    41    21    22 ar  
    42    21    26 ar  
    43    22    23 ar  
    44    22    50 1   
    45    23    24 ar  
    46    23    51 1   
    47    24    25 ar  
    48    24    52 1   
    49    25    26 ar  
    50    25    53 1   
    51    26    54 1   
    52    27    28 ar  
    53    27    32 ar  
    54    28    29 ar  
    55    28    55 1   
    56    29    30 ar  
    57    29    56 1   
    58    30    31 ar  
    59    30    57 1   
    60    31    32 ar  
    61    31    58 1   
    62    32    59 1   
    63    33    60 1   
    64    33    61 1   
@<TRIPOS>SUBSTRUCTURE
     1 QOZ         1 TEMP              0 ****  ****    0 ROOT
