@<TRIPOS>MOLECULE
QP0
   42    45     1     0     0
SMALL
abcg2


@<TRIPOS>ATOM
      1 N1         -16.7100     4.3200    25.7520 nb         1 QP0      -0.655000
      2 C4         -22.6190     4.5790    32.1530 ca         1 QP0      -0.136000
      3 C5         -22.6370     3.1950    32.1200 ca         1 QP0      -0.062000
      4 C6         -22.3910     2.5460    30.9150 ca         1 QP0       0.089000
      5 C7         -22.1360     3.2630    29.7600 ca         1 QP0      -0.058000
      6 C8         -22.1130     4.6570    29.7840 ca         1 QP0      -0.142300
      7 C10        -20.3530     5.4260    28.1760 c          1 QP0       0.598100
      8 C13        -16.2300     5.4660    25.3240 ca         1 QP0       0.366900
      9 C15        -16.3960     7.8970    24.8790 ca         1 QP0      -0.077000
     10 C17        -18.4460     9.0390    25.4460 ca         1 QP0      -0.086000
     11 O1         -19.4740     5.5470    29.0220 o          1 QP0      -0.566100
     12 C9         -21.8410     5.4350    28.5210 c6         1 QP0      -0.084400
     13 C3         -22.3540     5.3140    30.9950 ca         1 QP0       0.163100
     14 O          -22.3840     6.6680    31.1150 os         1 QP0      -0.344100
     15 C2         -21.8800     7.4390    30.0070 c6         1 QP0       0.159600
     16 C1         -22.3430     6.8910    28.6670 c6         1 QP0      -0.087700
     17 C          -23.8620     6.9660    28.5070 c3         1 QP0      -0.088100
     18 C11        -18.7730     5.4200    26.3170 ca         1 QP0      -0.091000
     19 C19        -18.2760     6.6700    25.8660 ca         1 QP0      -0.009000
     20 C18        -19.0120     7.8760    25.9060 ca         1 QP0      -0.105000
     21 C16        -17.1320     9.0540    24.9280 ca         1 QP0      -0.112000
     22 C14        -16.9510     6.6840    25.3460 ca         1 QP0      -0.096000
     23 C12        -17.9760     4.3070    26.2430 ca         1 QP0       0.344900
     24 H1         -22.8090     5.1090    33.0770 ha         1 QP0       0.134000
     25 H2         -22.8390     2.6280    33.0180 ha         1 QP0       0.132000
     26 H3         -21.9580     2.7460    28.8260 ha         1 QP0       0.124000
     27 H4         -15.2170     5.4650    24.9310 h4         1 QP0       0.022100
     28 H5         -15.3870     7.8950    24.4860 ha         1 QP0       0.120000
     29 H6         -19.0120     9.9610    25.4800 ha         1 QP0       0.115000
     30 H7         -22.3850     4.9660    27.6990 hc         1 QP0       0.066700
     31 H8         -20.7900     7.4480    30.0640 h1         1 QP0       0.070700
     32 H9         -22.2570     8.4470    30.1690 h1         1 QP0       0.070700
     33 H10        -21.8770     7.5040    27.8930 hc         1 QP0       0.057700
     34 H11        -24.2060     7.9940    28.6350 hc         1 QP0       0.043700
     35 H12        -24.1580     6.6250    27.5140 hc         1 QP0       0.043700
     36 H13        -24.3710     6.3430    29.2440 hc         1 QP0       0.043700
     37 H15        -20.0180     7.8740    26.3000 ha         1 QP0       0.114000
     38 H16        -16.7090     9.9840    24.5700 ha         1 QP0       0.119000
     39 H17        -18.3540     3.3530    26.5900 h4         1 QP0       0.030100
     40 N          -20.0870     5.3160    26.8500 ns         1 QP0      -0.175000
     41 CL         -22.4110     0.7920    30.8590 cl         1 QP0      -0.213000
     42 H14        -20.8620     5.2670    26.2040 hn         1 QP0       0.157000
@<TRIPOS>BOND
     1     1     8 ar  
     2     1    23 ar  
     3     2     3 ar  
     4     2    13 ar  
     5     2    24 1   
     6     3     4 ar  
     7     3    25 1   
     8     4     5 ar  
     9     4    41 1   
    10     5     6 ar  
    11     5    26 1   
    12     6    12 1   
    13     6    13 ar  
    14     7    11 2   
    15     7    12 1   
    16     7    40 1   
    17     8    22 ar  
    18     8    27 1   
    19     9    21 ar  
    20     9    22 ar  
    21     9    28 1   
    22    10    20 ar  
    23    10    21 ar  
    24    10    29 1   
    25    12    16 1   
    26    12    30 1   
    27    13    14 1   
    28    14    15 1   
    29    15    16 1   
    30    15    31 1   
    31    15    32 1   
    32    16    17 1   
    33    16    33 1   
    34    17    34 1   
    35    17    35 1   
    36    17    36 1   
    37    18    19 ar  
    38    18    23 ar  
    39    18    40 1   
    40    19    20 ar  
    41    19    22 ar  
    42    20    37 1   
    43    21    38 1   
    44    23    39 1   
    45    40    42 1   
@<TRIPOS>SUBSTRUCTURE
     1 QP0         1 TEMP              0 ****  ****    0 ROOT
