@<TRIPOS>MOLECULE
QP0
   42    45     1     0     0
SMALL
No Charge or Current Charge


@<TRIPOS>ATOM
      1 N1         -16.0750     5.2180    26.8660 nb         1 QP0      -0.655000
      2 C4         -23.2270     3.8350    31.8920 ca         1 QP0      -0.136000
      3 C5         -23.3320     2.5310    31.3750 ca         1 QP0      -0.062000
      4 C6         -22.8960     2.2610    30.0670 ca         1 QP0       0.089000
      5 C7         -22.3610     3.2880    29.2730 ca         1 QP0      -0.058000
      6 C8         -22.2510     4.5970    29.7860 ca         1 QP0      -0.142300
      7 C10        -20.1470     5.5740    28.7040 c          1 QP0       0.598100
      8 C13        -15.8510     5.9600    25.7600 ca         1 QP0       0.366900
      9 C15        -16.5500     7.5010    23.9970 ca         1 QP0      -0.077000
     10 C17        -18.8350     8.3320    23.9560 ca         1 QP0      -0.086000
     11 O1         -19.4260     5.0640    29.5530 o          1 QP0      -0.566100
     12 C9         -21.6770     5.7200    28.9080 c6         1 QP0      -0.084400
     13 C3         -22.6820     4.8640    31.1080 ca         1 QP0       0.163100
     14 O          -22.6140     6.1350    31.6440 os         1 QP0      -0.344100
     15 C2         -21.8200     7.1450    30.9840 c6         1 QP0       0.159600
     16 C1         -22.0500     7.1290    29.4520 c6         1 QP0      -0.087700
     17 C          -23.5050     7.5400    29.0800 c3         1 QP0      -0.088100
     18 C11        -18.3830     6.0210    26.8840 ca         1 QP0      -0.091000
     19 C19        -18.1370     6.7880    25.7190 ca         1 QP0      -0.009000
     20 C18        -19.1320     7.5870    25.1100 ca         1 QP0      -0.105000
     21 C16        -17.5470     8.2900    23.3990 ca         1 QP0      -0.112000
     22 C14        -16.8430     6.7520    25.1530 ca         1 QP0      -0.096000
     23 C12        -17.3130     5.2510    27.4100 ca         1 QP0       0.344900
     24 H1         -23.5670     4.0490    32.9020 ha         1 QP0       0.134000
     25 H2         -23.7500     1.7340    31.9840 ha         1 QP0       0.132000
     26 H3         -22.0340     3.0670    28.2600 ha         1 QP0       0.124000
     27 H4         -14.8450     5.9130    25.3450 h4         1 QP0       0.022100
     28 H5         -15.5530     7.4730    23.5610 ha         1 QP0       0.120000
     29 H6         -19.6060     8.9450    23.4930 ha         1 QP0       0.115000
     30 H7         -22.1150     5.6780    27.9000 hc         1 QP0       0.066700
     31 H8         -20.7600     6.9530    31.2020 h1         1 QP0       0.070700
     32 H9         -22.0730     8.1300    31.4030 h1         1 QP0       0.070700
     33 H10        -21.3980     7.8850    28.9900 hc         1 QP0       0.057700
     34 H11        -23.7510     8.5290    29.4850 hc         1 QP0       0.043700
     35 H12        -23.6380     7.5890    27.9930 hc         1 QP0       0.043700
     36 H13        -24.2410     6.8270    29.4720 hc         1 QP0       0.043700
     37 H15        -20.1380     7.6440    25.5180 ha         1 QP0       0.114000
     38 H16        -17.3210     8.8680    22.5060 ha         1 QP0       0.119000
     39 H17        -17.4390     4.6190    28.2850 h4         1 QP0       0.030100
     40 N          -19.6830     6.0270    27.4740 ns         1 QP0      -0.175000
     41 Cl         -23.0290     0.6310    29.4190 cl         1 QP0      -0.213000
     42 H14        -20.4000     6.4320    26.8870 hn         1 QP0       0.157000
@<TRIPOS>BOND
     1     1     8 ar  
     2     1    23 ar  
     3     2     3 ar  
     4     2    13 ar  
     5     2    24 1   
     6     3     4 ar  
     7     3    25 1   
     8     4     5 ar  
     9     4    41 1   
    10     5     6 ar  
    11     5    26 1   
    12     6    12 1   
    13     6    13 ar  
    14     7    11 2   
    15     7    12 1   
    16     7    40 1   
    17     8    22 ar  
    18     8    27 1   
    19     9    21 ar  
    20     9    22 ar  
    21     9    28 1   
    22    10    20 ar  
    23    10    21 ar  
    24    10    29 1   
    25    12    16 1   
    26    12    30 1   
    27    13    14 1   
    28    14    15 1   
    29    15    16 1   
    30    15    31 1   
    31    15    32 1   
    32    16    17 1   
    33    16    33 1   
    34    17    34 1   
    35    17    35 1   
    36    17    36 1   
    37    18    19 ar  
    38    18    23 ar  
    39    18    40 1   
    40    19    20 ar  
    41    19    22 ar  
    42    20    37 1   
    43    21    38 1   
    44    23    39 1   
    45    40    42 1   
@<TRIPOS>SUBSTRUCTURE
     1 QP0         1 TEMP              0 ****  ****    0 ROOT
