@<TRIPOS>MOLECULE
QP1
   65    68     1     0     0
SMALL
abcg2


@<TRIPOS>ATOM
      1 C11         73.1590    -9.9010    -6.0180 ca         1 QP1      -0.066500
      2 C18         75.2900    -7.5260    -0.0130 c3         1 QP1       0.034600
      3 C19         73.5370    -4.6650    -6.2240 ca         1 QP1       0.613900
      4 C20         73.7180    -5.5440    -5.1460 ca         1 QP1      -0.216000
      5 C21         72.8950    -6.6540    -5.0370 ca         1 QP1       0.061000
      6 C24         76.5810    -1.6690    -3.4270 ca         1 QP1      -0.132000
      7 C25         76.9690    -1.5990    -4.7610 ca         1 QP1      -0.155000
      8 C27         75.0330    -2.8860    -5.3960 ca         1 QP1       0.301000
      9 C29         77.7000    -1.5600    -7.4820 c3         1 QP1       0.148900
     10 C30         74.6120    -2.8690    -4.0760 ca         1 QP1      -0.129000
     11 C31         74.5050    -3.4870    -1.1240 c          1 QP1       0.621100
     12 C32         74.3190    -3.3690     0.3690 c3         1 QP1      -0.158400
     13 C33         73.0650    -4.0720     0.8660 c3         1 QP1      -0.087100
     14 C35         76.2380    -8.4830    -0.6930 c3         1 QP1       0.163600
     15 O36         76.1600    -9.7390    -0.0810 os         1 QP1      -0.439000
     16 C01         71.7140   -11.0070    -4.4560 ca         1 QP1      -0.066500
     17 C03         71.4550   -12.0020    -5.3850 ca         1 QP1      -0.159000
     18 C06         72.0550   -11.9190    -6.6270 ca         1 QP1       0.168000
     19 C09         72.9080   -10.8850    -6.9610 ca         1 QP1      -0.159000
     20 C13         72.5580    -9.9380    -4.7590 ca         1 QP1      -0.120500
     21 C14         72.8320    -8.9140    -3.7470 cc         1 QP1       0.300500
     22 C15         73.0140    -7.5510    -3.8920 cd         1 QP1      -0.138000
     23 C16         73.2890    -8.1590    -1.8010 cd         1 QP1       0.479800
     24 C22         71.9370    -6.8720    -6.0340 ca         1 QP1      -0.193000
     25 C23         71.8870    -5.9810    -7.0850 ca         1 QP1       0.377900
     26 C26         76.2230    -2.2250    -5.7510 ca         1 QP1       0.096100
     27 C28         75.4060    -2.3160    -3.0780 ca         1 QP1      -0.053000
     28 C37         76.9610   -10.7010    -0.7180 c3         1 QP1       0.146900
     29 F34         71.8090   -12.8780    -7.5350 f          1 QP1      -0.183000
     30 N02         73.3110    -7.1000    -2.6360 na         1 QP1      -0.264500
     31 N04         73.0040    -9.2660    -2.4420 nc         1 QP1      -0.628000
     32 N07         72.6510    -4.8990    -7.1890 nb         1 QP1      -0.740000
     33 N12         75.0190    -2.3920    -1.7270 ns         1 QP1      -0.143000
     34 O05         76.5420    -2.2510    -7.0580 os         1 QP1      -0.340100
     35 O08         74.2320    -4.5120    -1.7360 o          1 QP1      -0.642100
     36 S17         73.5430    -8.0450    -0.0780 ss         1 QP1      -0.321300
     37 H1          73.8460    -9.1030    -6.2690 ha         1 QP1       0.127000
     38 H2          75.3890    -6.5300    -0.4430 h1         1 QP1       0.076700
     39 H3          75.5110    -7.4440     1.0530 h1         1 QP1       0.076700
     40 H4          74.4980    -5.3720    -4.4180 ha         1 QP1       0.139000
     41 H5          77.2070    -1.2200    -2.6670 ha         1 QP1       0.115000
     42 H6          77.8860    -1.0820    -5.0050 ha         1 QP1       0.122000
     43 H7          77.7680    -1.7030    -8.5580 h1         1 QP1       0.042700
     44 H8          77.6350    -0.4900    -7.2720 h1         1 QP1       0.042700
     45 H9          78.6050    -1.9570    -7.0160 h1         1 QP1       0.042700
     46 H10         73.6560    -3.3020    -3.8260 ha         1 QP1       0.145000
     47 H11         75.2040    -3.8120     0.8370 hc         1 QP1       0.059700
     48 H12         74.3110    -2.3190     0.6690 hc         1 QP1       0.059700
     49 H13         72.9820    -3.9620     1.9460 hc         1 QP1       0.050033
     50 H14         72.1670    -3.6480     0.4160 hc         1 QP1       0.050033
     51 H15         73.0850    -5.1380     0.6410 hc         1 QP1       0.050033
     52 H16         77.2540    -8.0670    -0.6210 h1         1 QP1       0.027700
     53 H17         76.0030    -8.5490    -1.7660 h1         1 QP1       0.027700
     54 H18         71.2460   -11.0600    -3.4820 ha         1 QP1       0.127000
     55 H19         70.7950   -12.8260    -5.1470 ha         1 QP1       0.130000
     56 H20         73.3800   -10.8530    -7.9340 ha         1 QP1       0.130000
     57 H21         71.2480    -7.7020    -5.9870 ha         1 QP1       0.138000
     58 H22         71.1740    -6.1350    -7.8870 h4         1 QP1       0.020100
     59 H23         76.8390   -11.6440    -0.1870 h1         1 QP1       0.030367
     60 H24         76.6670   -10.8510    -1.7640 h1         1 QP1       0.030367
     61 H25         78.0240   -10.4320    -0.7030 h1         1 QP1       0.030367
     62 H26         73.4900    -6.1360    -2.3540 hn         1 QP1       0.400000
     63 H28         74.2190    -3.0910    -7.2890 hn         1 QP1       0.521000
     64 H29         75.2960    -1.6260    -1.1320 hn         1 QP1       0.155000
     65 N10         74.2850    -3.5260    -6.3810 nu         1 QP1      -0.950900
@<TRIPOS>BOND
     1     1    19 ar  
     2     1    20 ar  
     3     1    37 1   
     4     2    14 1   
     5     2    36 1   
     6     2    38 1   
     7     2    39 1   
     8     3     4 ar  
     9     3    32 ar  
    10     3    65 1   
    11     4     5 ar  
    12     4    40 1   
    13     5    22 1   
    14     5    24 ar  
    15     6     7 ar  
    16     6    27 ar  
    17     6    41 1   
    18     7    26 ar  
    19     7    42 1   
    20     8    10 ar  
    21     8    26 ar  
    22     8    65 1   
    23     9    34 1   
    24     9    43 1   
    25     9    44 1   
    26     9    45 1   
    27    10    27 ar  
    28    10    46 1   
    29    11    12 1   
    30    11    33 1   
    31    11    35 2   
    32    12    13 1   
    33    12    47 1   
    34    12    48 1   
    35    13    49 1   
    36    13    50 1   
    37    13    51 1   
    38    14    15 1   
    39    14    52 1   
    40    14    53 1   
    41    15    28 1   
    42    16    17 ar  
    43    16    20 ar  
    44    16    54 1   
    45    17    18 ar  
    46    17    55 1   
    47    18    19 ar  
    48    18    29 1   
    49    19    56 1   
    50    20    21 1   
    51    21    22 2   
    52    21    31 1   
    53    22    30 1   
    54    23    30 1   
    55    23    31 2   
    56    23    36 1   
    57    24    25 ar  
    58    24    57 1   
    59    25    32 ar  
    60    25    58 1   
    61    26    34 1   
    62    27    33 1   
    63    28    59 1   
    64    28    60 1   
    65    28    61 1   
    66    30    62 1   
    67    33    64 1   
    68    63    65 1   
@<TRIPOS>SUBSTRUCTURE
     1 QP1         1 TEMP              0 ****  ****    0 ROOT
