@<TRIPOS>MOLECULE
QP1
   65    68     1     0     0
SMALL
No Charge or Current Charge


@<TRIPOS>ATOM
      1 C11         73.0720   -10.2640    -5.8950 ca         1 QP1      -0.066500
      2 C18         75.4060    -7.6030     0.0230 c3         1 QP1       0.034600
      3 C19         73.8260    -4.9430    -6.2540 ca         1 QP1       0.613900
      4 C20         73.9500    -5.8210    -5.1700 ca         1 QP1      -0.216000
      5 C21         73.1760    -6.9860    -5.1260 ca         1 QP1       0.061000
      6 C24         76.4110    -1.4520    -3.3600 ca         1 QP1      -0.132000
      7 C25         76.7710    -1.2740    -4.7100 ca         1 QP1      -0.155000
      8 C27         75.1000    -2.9340    -5.3710 ca         1 QP1       0.301000
      9 C29         77.5210    -1.0100    -7.5070 c3         1 QP1       0.148900
     10 C30         74.7040    -3.0310    -4.0270 ca         1 QP1      -0.129000
     11 C31         74.5010    -3.6830    -1.0270 c          1 QP1       0.621100
     12 C32         74.2780    -3.5360     0.4830 c3         1 QP1      -0.158400
     13 C33         72.7770    -3.4260     0.8340 c3         1 QP1      -0.087100
     14 C35         76.4660    -8.4570    -0.7060 c3         1 QP1       0.163600
     15 O36         76.5590    -9.7320    -0.0470 os         1 QP1      -0.439000
     16 C01         71.0950   -10.7540    -4.5600 ca         1 QP1      -0.066500
     17 C03         70.6540   -11.6530    -5.5470 ca         1 QP1      -0.159000
     18 C06         71.4190   -11.8510    -6.7060 ca         1 QP1       0.168000
     19 C09         72.6290   -11.1630    -6.8810 ca         1 QP1      -0.159000
     20 C13         72.2930   -10.0310    -4.7400 ca         1 QP1      -0.120500
     21 C14         72.7750    -9.1330    -3.6900 cc         1 QP1       0.300500
     22 C15         73.2350    -7.8480    -3.9230 cd         1 QP1      -0.138000
     23 C16         73.3920    -8.4640    -1.7990 cd         1 QP1       0.479800
     24 C22         72.3360    -7.2180    -6.2330 ca         1 QP1      -0.193000
     25 C23         72.3260    -6.3040    -7.3020 ca         1 QP1       0.377900
     26 C26         76.1290    -2.0230    -5.7260 ca         1 QP1       0.096100
     27 C28         75.3890    -2.3500    -3.0110 ca         1 QP1      -0.053000
     28 C37         77.4950   -10.6450    -0.6440 c3         1 QP1       0.146900
     29 F34         70.9950   -12.7160    -7.6520 f          1 QP1      -0.183000
     30 N02         73.6330    -7.4160    -2.6560 na         1 QP1      -0.264500
     31 N04         72.8470    -9.5070    -2.3800 nc         1 QP1      -0.628000
     32 N07         73.0600    -5.1690    -7.3150 nb         1 QP1      -0.740000
     33 N12         75.0720    -2.5730    -1.6440 ns         1 QP1      -0.143000
     34 O05         76.4830    -1.9020    -7.0630 os         1 QP1      -0.340100
     35 O08         74.2350    -4.7320    -1.6120 o          1 QP1      -0.642100
     36 S17         73.7080    -8.3510    -0.0680 ss         1 QP1      -0.321300
     37 H1          74.0190    -9.7440    -6.0280 ha         1 QP1       0.127000
     38 H2          75.3880    -6.6020    -0.4200 h1         1 QP1       0.076700
     39 H3          75.6900    -7.4980     1.0770 h1         1 QP1       0.076700
     40 H4          74.6490    -5.6050    -4.3720 ha         1 QP1       0.139000
     41 H5          76.9390    -0.8990    -2.5850 ha         1 QP1       0.115000
     42 H6          77.5660    -0.5720    -4.9440 ha         1 QP1       0.122000
     43 H7          77.6350    -1.0730    -8.5970 h1         1 QP1       0.042700
     44 H8          77.2790     0.0290    -7.2510 h1         1 QP1       0.042700
     45 H9          78.4830    -1.2720    -7.0500 h1         1 QP1       0.042700
     46 H10         73.8510    -3.6470    -3.7730 ha         1 QP1       0.145000
     47 H11         74.6830    -4.4230     0.9850 hc         1 QP1       0.059700
     48 H12         74.7870    -2.6380     0.8550 hc         1 QP1       0.059700
     49 H13         72.6420    -3.3260     1.9180 hc         1 QP1       0.050033
     50 H14         72.3270    -2.5510     0.3500 hc         1 QP1       0.050033
     51 H15         72.2340    -4.3210     0.5040 hc         1 QP1       0.050033
     52 H16         77.4320    -7.9360    -0.6710 h1         1 QP1       0.027700
     53 H17         76.1840    -8.5810    -1.7600 h1         1 QP1       0.027700
     54 H18         70.5030   -10.6100    -3.6580 ha         1 QP1       0.127000
     55 H19         69.7240   -12.2000    -5.4120 ha         1 QP1       0.130000
     56 H20         73.2240   -11.3320    -7.7740 ha         1 QP1       0.130000
     57 H21         71.6640    -8.0650    -6.2750 ha         1 QP1       0.138000
     58 H22         71.6820    -6.4720    -8.1640 h4         1 QP1       0.020100
     59 H23         77.5120   -11.5910    -0.0890 h1         1 QP1       0.030367
     60 H24         77.2170   -10.8630    -1.6830 h1         1 QP1       0.030367
     61 H25         78.5090   -10.2240    -0.6350 h1         1 QP1       0.030367
     62 H26         73.9380    -6.4850    -2.3770 hn         1 QP1       0.400000
     63 H28         74.5470    -3.4120    -7.2890 hn         1 QP1       0.521000
     64 H29         75.3010    -1.8070    -1.0240 hn         1 QP1       0.155000
     65 N10         74.4720    -3.7420    -6.3310 nu         1 QP1      -0.950900
@<TRIPOS>BOND
     1     1    19 ar  
     2     1    20 ar  
     3     1    37 1   
     4     2    14 1   
     5     2    36 1   
     6     2    38 1   
     7     2    39 1   
     8     3     4 ar  
     9     3    32 ar  
    10     3    65 1   
    11     4     5 ar  
    12     4    40 1   
    13     5    22 1   
    14     5    24 ar  
    15     6     7 ar  
    16     6    27 ar  
    17     6    41 1   
    18     7    26 ar  
    19     7    42 1   
    20     8    10 ar  
    21     8    26 ar  
    22     8    65 1   
    23     9    34 1   
    24     9    43 1   
    25     9    44 1   
    26     9    45 1   
    27    10    27 ar  
    28    10    46 1   
    29    11    12 1   
    30    11    33 1   
    31    11    35 2   
    32    12    13 1   
    33    12    47 1   
    34    12    48 1   
    35    13    49 1   
    36    13    50 1   
    37    13    51 1   
    38    14    15 1   
    39    14    52 1   
    40    14    53 1   
    41    15    28 1   
    42    16    17 ar  
    43    16    20 ar  
    44    16    54 1   
    45    17    18 ar  
    46    17    55 1   
    47    18    19 ar  
    48    18    29 1   
    49    19    56 1   
    50    20    21 1   
    51    21    22 2   
    52    21    31 1   
    53    22    30 1   
    54    23    30 1   
    55    23    31 2   
    56    23    36 1   
    57    24    25 ar  
    58    24    57 1   
    59    25    32 ar  
    60    25    58 1   
    61    26    34 1   
    62    27    33 1   
    63    28    59 1   
    64    28    60 1   
    65    28    61 1   
    66    30    62 1   
    67    33    64 1   
    68    63    65 1   
@<TRIPOS>SUBSTRUCTURE
     1 QP1         1 TEMP              0 ****  ****    0 ROOT
