@<TRIPOS>MOLECULE
QP2
   54    55     1     0     0
SMALL
No Charge or Current Charge


@<TRIPOS>ATOM
      1 CAC         28.9910    13.0310    -2.3770 c3         1 QP2      -0.078100
      2 CAA         28.9570    13.4940    -0.9020 c3         1 QP2       0.205300
      3 OAB         29.2660    14.8860    -0.8460 oh         1 QP2      -0.683000
      4 CAD         27.6400    13.2230    -0.1190 c3         1 QP2      -0.236700
      5 CAE         26.4570    14.0270    -0.6920 c          1 QP2       0.736000
      6 OBB         25.9710    13.6920    -1.7630 o          1 QP2      -0.734000
      7 OAF         25.9900    14.9260    -0.0060 o          1 QP2      -0.734000
      8 CAG         27.2790    11.7160    -0.0160 c5         1 QP2       0.194500
      9 CAI         28.3150    10.7520     0.6820 c5         1 QP2      -0.039500
     10 CBA         29.0540    11.3210     1.9260 c3         1 QP2      -0.075100
     11 NAH         26.0880    11.4540     0.8250 nu         1 QP2      -0.714200
     12 CAK         26.1850    10.0850     1.1830 ce         1 QP2       0.080800
     13 CAL         24.8710     9.3440     1.5430 c          1 QP2       0.713200
     14 OAN         23.8240     9.9850     1.5010 o          1 QP2      -0.712500
     15 OAM         24.8810     8.1580     1.8480 o          1 QP2      -0.712500
     16 CAJ         27.4340     9.5730     1.0820 c2         1 QP2      -0.193600
     17 SAO         27.9690     7.8770     1.4270 ss         1 QP2      -0.255600
     18 CAP         29.6310     7.9480     0.5750 c5         1 QP2      -0.017700
     19 CAT         30.3640     6.6060     0.8590 c5         1 QP2      -0.076400
     20 CAQ         29.4330     7.9250    -0.9800 c5         1 QP2       0.152800
     21 NAR         30.0390     6.6530    -1.4520 n7         1 QP2      -0.843400
     22 CAS         31.1210     6.3960    -0.4740 c5         1 QP2       0.155500
     23 CAU         31.7800     4.9920    -0.6380 c3         1 QP2       0.164800
     24 NAV         32.8710     4.7570     0.3450 n7         1 QP2      -0.915400
     25 CAW         33.6130     3.6470     0.1670 c3         1 QP2       0.847400
     26 OAX         34.5670     3.7340    -0.7120 oh         1 QP2      -0.677500
     27 OAY         32.9910     2.4640     0.2240 oh         1 QP2      -0.677500
     28 NAZ         34.3500     3.6580     1.2290 n8         1 QP2      -1.068200
     29 H1          28.7690    11.9610    -2.4610 hc         1 QP2       0.032367
     30 H2          28.2770    13.5870    -2.9930 hc         1 QP2       0.032367
     31 H3          29.9900    13.1930    -2.7990 hc         1 QP2       0.032367
     32 H4          29.7610    12.9500    -0.3930 h1         1 QP2      -0.019300
     33 H5          29.2220    15.1420     0.1010 ho         1 QP2       0.440000
     34 H6          27.8190    13.6050     0.8940 hc         1 QP2       0.026700
     35 H8          27.0880    11.3500    -1.0360 h1         1 QP2       0.068700
     36 H9          29.0850    10.4820    -0.0440 hc         1 QP2       0.026700
     37 H10         29.6640    10.5480     2.4070 hc         1 QP2       0.018700
     38 H11         29.7270    12.1440     1.6630 hc         1 QP2       0.018700
     39 H12         28.3470    11.6940     2.6760 hc         1 QP2       0.018700
     40 H13         25.1550    11.7730     0.5590 hn         1 QP2       0.467000
     41 H15         30.2300     8.8040     0.9080 h1         1 QP2       0.066700
     42 H16         29.6670     5.7810     1.0510 hc         1 QP2       0.037700
     43 H17         31.0360     6.6750     1.7220 hc         1 QP2       0.037700
     44 H18         29.9580     8.7790    -1.4310 h1         1 QP2       0.054700
     45 H19         28.3770     8.0010    -1.2750 h1         1 QP2       0.054700
     46 H20         29.3370     5.9110    -1.3380 hn         1 QP2       0.430000
     47 H22         31.9100     7.1530    -0.5890 h1         1 QP2       0.034700
     48 H23         30.9940     4.2310    -0.5340 h1         1 QP2       0.065200
     49 H24         32.1680     4.9240    -1.6650 h1         1 QP2       0.065200
     50 H25         33.5740     5.4720     0.1680 hn         1 QP2       0.438000
     51 H27         35.2470     3.6590    -0.0140 ho         1 QP2       0.463000
     52 H28         32.3380     2.5460    -0.4900 ho         1 QP2       0.463000
     53 H29         33.7460     4.2170     1.8290 hn         1 QP2       0.410500
     54 H30         34.1320     2.7310     1.5910 hn         1 QP2       0.410500
@<TRIPOS>BOND
     1     1     2 1   
     2     1    29 1   
     3     1    30 1   
     4     1    31 1   
     5     2     3 1   
     6     2     4 1   
     7     2    32 1   
     8     3    33 1   
     9     4     5 1   
    10     4     8 1   
    11     4    34 1   
    12     5     6 1   
    13     5     7 1   
    14     8     9 1   
    15     8    11 1   
    16     8    35 1   
    17     9    10 1   
    18     9    16 1   
    19     9    36 1   
    20    10    37 1   
    21    10    38 1   
    22    10    39 1   
    23    11    12 1   
    24    11    40 1   
    25    12    13 1   
    26    12    16 2   
    27    13    14 1   
    28    13    15 1   
    29    16    17 1   
    30    17    18 1   
    31    18    19 1   
    32    18    20 1   
    33    18    41 1   
    34    19    22 1   
    35    19    42 1   
    36    19    43 1   
    37    20    21 1   
    38    20    44 1   
    39    20    45 1   
    40    21    22 1   
    41    21    46 1   
    42    22    23 1   
    43    22    47 1   
    44    23    24 1   
    45    23    48 1   
    46    23    49 1   
    47    24    25 1   
    48    24    50 1   
    49    25    26 1   
    50    25    27 1   
    51    25    28 1   
    52    26    51 1   
    53    27    52 1   
    54    28    53 1   
    55    28    54 1   
@<TRIPOS>SUBSTRUCTURE
     1 QP2         1 TEMP              0 ****  ****    0 ROOT
