@<TRIPOS>MOLECULE
QP2
   54    55     1     0     0
SMALL
bcc


@<TRIPOS>ATOM
      1 CAC         28.5930    13.6790    -1.8420 c3         1 QP2      -0.078100
      2 CAA         28.1370    13.8110    -0.4000 c3         1 QP2       0.182100
      3 OAB         27.6950    15.1490    -0.2260 oh         1 QP2      -0.620800
      4 CAD         27.0490    12.8230     0.0580 c3         1 QP2      -0.236700
      5 CAE         25.6660    13.1840    -0.5410 c          1 QP2       0.946600
      6 OBB         25.5160    13.0140    -1.7680 o          1 QP2      -0.839300
      7 OAF         24.8100    13.6160     0.2590 o          1 QP2      -0.839300
      8 CAG         27.4090    11.3730    -0.2270 c5         1 QP2       0.194500
      9 CAI         28.6800    10.8060     0.4440 c5         1 QP2      -0.039500
     10 CBA         28.9850    11.3090     1.8550 c3         1 QP2      -0.075100
     11 NAH         26.3340    10.4470     0.1450 nu         1 QP2      -0.659000
     12 CAK         26.9520     9.2310     0.4800 ce         1 QP2       0.080800
     13 CAL         26.1180     8.0150     0.7890 c          1 QP2       0.923800
     14 OAN         24.8820     8.1490     0.6960 o          1 QP2      -0.817800
     15 OAM         26.7470     6.9920     1.1270 o          1 QP2      -0.817800
     16 CAJ         28.2940     9.3410     0.5120 c2         1 QP2      -0.193600
     17 SAO         29.4300     8.0640     0.8780 ss         1 QP2      -0.207700
     18 CAP         30.9670     8.6860     0.1140 c5         1 QP2      -0.065600
     19 CAT         32.0360     7.6090     0.3030 c5         1 QP2      -0.076400
     20 CAQ         30.8560     8.7420    -1.4100 c5         1 QP2       0.152800
     21 NAR         30.9700     7.3660    -1.8660 n7         1 QP2      -0.788200
     22 CAS         31.9290     6.7180    -0.9620 c5         1 QP2       0.155500
     23 CAU         31.5040     5.2870    -0.6630 c3         1 QP2       0.164800
     24 NAV         32.5250     4.6190     0.1170 n7         1 QP2      -0.860200
     25 CAW         32.1670     3.4070     0.7840 c3         1 QP2       0.801000
     26 OAX         31.6610     2.4730    -0.1190 oh         1 QP2      -0.615300
     27 OAY         31.1200     3.6490     1.6910 oh         1 QP2      -0.615300
     28 NAZ         33.3730     2.9020     1.3880 n8         1 QP2      -0.957800
     29 H1          29.0670    12.7110    -2.0100 hc         1 QP2       0.032367
     30 H2          27.7650    13.7770    -2.5410 hc         1 QP2       0.032367
     31 H3          29.3380    14.4440    -2.0690 hc         1 QP2       0.032367
     32 H4          29.0210    13.6380     0.2320 h1         1 QP2      -0.019300
     33 H5          27.2870    15.2180     0.6430 ho         1 QP2       0.401000
     34 H6          26.9710    12.9360     1.1480 hc         1 QP2       0.026700
     35 H8          27.5510    11.2560    -1.3070 h1         1 QP2       0.068700
     36 H9          29.5410    11.0000    -0.1990 hc         1 QP2       0.026700
     37 H10         29.7800    10.7130     2.3070 hc         1 QP2       0.018700
     38 H11         29.3130    12.3490     1.8600 hc         1 QP2       0.018700
     39 H12         28.1070    11.2290     2.4980 hc         1 QP2       0.018700
     40 H13         25.7060    10.7960     0.8590 hn         1 QP2       0.411800
     41 H15         31.2510     9.6380     0.5630 h1         1 QP2       0.066700
     42 H16         31.9160     7.0350     1.2250 hc         1 QP2       0.037700
     43 H17         33.0170     8.0850     0.3590 hc         1 QP2       0.037700
     44 H18         31.6910     9.3330    -1.8020 h1         1 QP2       0.054700
     45 H19         29.9340     9.1980    -1.7720 h1         1 QP2       0.054700
     46 H20         30.0630     6.9280    -1.7410 hn         1 QP2       0.374800
     47 H22         32.9060     6.6900    -1.4570 h1         1 QP2       0.034700
     48 H23         30.5760     5.3150    -0.0870 h1         1 QP2       0.065200
     49 H24         31.2800     4.7770    -1.6100 h1         1 QP2       0.065200
     50 H25         33.3640     4.4760    -0.4300 hn         1 QP2       0.382800
     51 H27         31.3300     1.7020     0.3560 ho         1 QP2       0.424000
     52 H28         31.4280     4.2820     2.3490 ho         1 QP2       0.424000
     53 H29         33.7610     3.5840     2.0280 hn         1 QP2       0.355300
     54 H30         33.1830     2.0640     1.9270 hn         1 QP2       0.355300
@<TRIPOS>BOND
     1     1     2 1   
     2     1    29 1   
     3     1    30 1   
     4     1    31 1   
     5     2     3 1   
     6     2     4 1   
     7     2    32 1   
     8     3    33 1   
     9     4     5 1   
    10     4     8 1   
    11     4    34 1   
    12     5     6 1   
    13     5     7 1   
    14     8     9 1   
    15     8    11 1   
    16     8    35 1   
    17     9    10 1   
    18     9    16 1   
    19     9    36 1   
    20    10    37 1   
    21    10    38 1   
    22    10    39 1   
    23    11    12 1   
    24    11    40 1   
    25    12    13 1   
    26    12    16 2   
    27    13    14 1   
    28    13    15 1   
    29    16    17 1   
    30    17    18 1   
    31    18    19 1   
    32    18    20 1   
    33    18    41 1   
    34    19    22 1   
    35    19    42 1   
    36    19    43 1   
    37    20    21 1   
    38    20    44 1   
    39    20    45 1   
    40    21    22 1   
    41    21    46 1   
    42    22    23 1   
    43    22    47 1   
    44    23    24 1   
    45    23    48 1   
    46    23    49 1   
    47    24    25 1   
    48    24    50 1   
    49    25    26 1   
    50    25    27 1   
    51    25    28 1   
    52    26    51 1   
    53    27    52 1   
    54    28    53 1   
    55    28    54 1   
@<TRIPOS>SUBSTRUCTURE
     1 QP2         1 TEMP              0 ****  ****    0 ROOT
