@<TRIPOS>MOLECULE
QP3
   33    35     1     0     0
SMALL
abcg2


@<TRIPOS>ATOM
      1 CAU         19.0380   -15.2720    13.7340 c3         1 QP3       0.145900
      2 OAT         19.8060   -14.0700    13.8510 os         1 QP3      -0.312100
      3 CAL         20.0890   -13.5890    15.0710 ca         1 QP3       0.235100
      4 CAK         19.6520   -14.2300    16.2250 ca         1 QP3      -0.252000
      5 CAM         20.8530   -12.3880    15.1650 ca         1 QP3      -0.207600
      6 CAN         21.3660   -11.6790    13.9900 c          1 QP3       0.622300
      7 OAO         21.1730   -12.0890    12.8300 o          1 QP3      -0.561100
      8 CAP         22.1430   -10.4430    14.1860 ca         1 QP3      -0.250600
      9 CAQ         22.6480    -9.7460    13.0660 ca         1 QP3       0.208100
     10 OAR         22.4480   -10.1710    11.8100 oh         1 QP3      -0.554100
     11 CAS         23.3860    -8.5700    13.2490 ca         1 QP3      -0.147000
     12 CAA         23.6240    -8.0860    14.5210 ca         1 QP3      -0.056000
     13 CAB         23.1330    -8.7610    15.6380 ca         1 QP3      -0.111000
     14 CAC         22.4010    -9.9260    15.4700 ca         1 QP3      -0.090600
     15 CAD         21.8920   -10.6330    16.6650 c          1 QP3       0.582300
     16 OAE         22.0950   -10.2010    17.7920 o          1 QP3      -0.514100
     17 CAF         21.1170   -11.8910    16.4590 ca         1 QP3      -0.049600
     18 CAG         20.6770   -12.5350    17.6040 ca         1 QP3      -0.203000
     19 CAH         19.9450   -13.7150    17.4860 ca         1 QP3       0.207100
     20 OAI         19.4800   -14.4230    18.5320 os         1 QP3      -0.344100
     21 CAJ         19.7370   -13.9440    19.8580 c3         1 QP3       0.147900
     22 H1          18.9470   -15.4530    12.6670 h1         1 QP3       0.050033
     23 H2          19.5500   -16.1110    14.2100 h1         1 QP3       0.050033
     24 H3          18.0460   -15.1460    14.1730 h1         1 QP3       0.050033
     25 H4          19.0760   -15.1410    16.1720 ha         1 QP3       0.138000
     26 H5          21.9110   -11.0080    11.8960 ho         1 QP3       0.522000
     27 H6          23.7610    -8.0570    12.3740 ha         1 QP3       0.136000
     28 H7          24.1960    -7.1760    14.6490 ha         1 QP3       0.122000
     29 H8          23.3140    -8.3890    16.6360 ha         1 QP3       0.138000
     30 H9          20.9160   -12.1040    18.5630 ha         1 QP3       0.146000
     31 H10         19.2670   -14.6620    20.5240 h1         1 QP3       0.050367
     32 H11         20.8100   -13.9040    20.0530 h1         1 QP3       0.050367
     33 H12         19.2960   -12.9570    20.0050 h1         1 QP3       0.050367
@<TRIPOS>BOND
     1     1     2 1   
     2     1    22 1   
     3     1    23 1   
     4     1    24 1   
     5     2     3 1   
     6     3     4 ar  
     7     3     5 ar  
     8     4    19 ar  
     9     4    25 1   
    10     5     6 1   
    11     5    17 ar  
    12     6     7 2   
    13     6     8 1   
    14     8     9 ar  
    15     8    14 ar  
    16     9    10 1   
    17     9    11 ar  
    18    10    26 1   
    19    11    12 ar  
    20    11    27 1   
    21    12    13 ar  
    22    12    28 1   
    23    13    14 ar  
    24    13    29 1   
    25    14    15 1   
    26    15    16 2   
    27    15    17 1   
    28    17    18 ar  
    29    18    19 ar  
    30    18    30 1   
    31    19    20 1   
    32    20    21 1   
    33    21    31 1   
    34    21    32 1   
    35    21    33 1   
@<TRIPOS>SUBSTRUCTURE
     1 QP3         1 TEMP              0 ****  ****    0 ROOT
