@<TRIPOS>MOLECULE
QP3
   33    35     1     0     0
SMALL
No Charge or Current Charge


@<TRIPOS>ATOM
      1 CAU         19.0350   -15.3300    13.6550 c3         1 QP3       0.145900
      2 OAT         19.7980   -14.1250    13.8460 os         1 QP3      -0.312100
      3 CAL         20.0900   -13.5990    15.0910 ca         1 QP3       0.235100
      4 CAK         19.6340   -14.2520    16.2550 ca         1 QP3      -0.252000
      5 CAM         20.8520   -12.4010    15.1990 ca         1 QP3      -0.207600
      6 CAN         21.3610   -11.6700    13.9660 c          1 QP3       0.622300
      7 OAO         21.1420   -12.0740    12.8290 o          1 QP3      -0.561100
      8 CAP         22.1670   -10.3980    14.1440 ca         1 QP3      -0.250600
      9 CAQ         22.6640    -9.6810    13.0230 ca         1 QP3       0.208100
     10 OAR         22.4360   -10.1070    11.7500 oh         1 QP3      -0.554100
     11 CAS         23.4080    -8.5070    13.1930 ca         1 QP3      -0.147000
     12 CAA         23.6760    -8.0180    14.4760 ca         1 QP3      -0.056000
     13 CAB         23.1950    -8.7110    15.5940 ca         1 QP3      -0.111000
     14 CAC         22.4410    -9.8990    15.4460 ca         1 QP3      -0.090600
     15 CAD         21.9430   -10.6130    16.6790 c          1 QP3       0.582300
     16 OAE         22.1840   -10.1740    17.8010 o          1 QP3      -0.514100
     17 CAF         21.1380   -11.8820    16.4920 ca         1 QP3      -0.049600
     18 CAG         20.6650   -12.5620    17.6380 ca         1 QP3      -0.203000
     19 CAH         19.9150   -13.7420    17.5200 ca         1 QP3       0.207100
     20 OAI         19.4350   -14.4360    18.6110 os         1 QP3      -0.344100
     21 CAJ         19.6650   -14.0020    19.9640 c3         1 QP3       0.147900
     22 H1          18.9330   -15.5480    12.5850 h1         1 QP3       0.050033
     23 H2          19.5310   -16.1860    14.1290 h1         1 QP3       0.050033
     24 H3          18.0270   -15.2260    14.0770 h1         1 QP3       0.050033
     25 H4          19.0520   -15.1650    16.2020 ha         1 QP3       0.138000
     26 H5          21.9010   -10.9390    11.8350 ho         1 QP3       0.522000
     27 H6          23.7800    -7.9720    12.3220 ha         1 QP3       0.136000
     28 H7          24.2540    -7.1060    14.6050 ha         1 QP3       0.122000
     29 H8          23.4130    -8.3160    16.5850 ha         1 QP3       0.138000
     30 H9          20.8890   -12.1580    18.6210 ha         1 QP3       0.146000
     31 H10         19.1960   -14.6980    20.6710 h1         1 QP3       0.050367
     32 H11         20.7390   -13.9670    20.1860 h1         1 QP3       0.050367
     33 H12         19.2360   -13.0070    20.1340 h1         1 QP3       0.050367
@<TRIPOS>BOND
     1     1     2 1   
     2     1    22 1   
     3     1    23 1   
     4     1    24 1   
     5     2     3 1   
     6     3     4 ar  
     7     3     5 ar  
     8     4    19 ar  
     9     4    25 1   
    10     5     6 1   
    11     5    17 ar  
    12     6     7 2   
    13     6     8 1   
    14     8     9 ar  
    15     8    14 ar  
    16     9    10 1   
    17     9    11 ar  
    18    10    26 1   
    19    11    12 ar  
    20    11    27 1   
    21    12    13 ar  
    22    12    28 1   
    23    13    14 ar  
    24    13    29 1   
    25    14    15 1   
    26    15    16 2   
    27    15    17 1   
    28    17    18 ar  
    29    18    19 ar  
    30    18    30 1   
    31    19    20 1   
    32    20    21 1   
    33    21    31 1   
    34    21    32 1   
    35    21    33 1   
@<TRIPOS>SUBSTRUCTURE
     1 QP3         1 TEMP              0 ****  ****    0 ROOT
