@<TRIPOS>MOLECULE
QP4
   55    59     1     0     0
SMALL
No Charge or Current Charge


@<TRIPOS>ATOM
      1 C11          1.5370   -16.2480    -2.4340 cc         1 QP4       0.412800
      2 C13          1.8140   -16.4340    -0.9620 c3         1 QP4      -0.103700
      3 C14          2.6880   -15.3510    -0.2680 c3         1 QP4      -0.113400
      4 C15          1.9670   -14.0070     0.0240 c3         1 QP4       0.147600
      5 C17          3.3130   -12.4300    -1.2650 c3         1 QP4       0.134900
      6 C20          1.8050   -13.3100    -5.7580 ca         1 QP4      -0.173300
      7 C21          0.8840   -14.3090    -5.4270 ca         1 QP4       0.060000
      8 C19          1.4920   -12.3830    -6.7390 ca         1 QP4       0.505000
      9 C01          0.4900   -18.8740    -5.5640 ca         1 QP4      -0.066500
     10 C02          0.3130   -19.7070    -6.6830 ca         1 QP4      -0.158000
     11 C03          0.5030   -19.1960    -7.9720 ca         1 QP4       0.171000
     12 C04          0.8850   -17.8610    -8.1480 ca         1 QP4      -0.158000
     13 C05          1.0620   -17.0250    -7.0310 ca         1 QP4      -0.066500
     14 C06          0.8380   -17.5100    -5.7200 ca         1 QP4      -0.123500
     15 C08          1.0470   -16.6660    -4.5130 cd         1 QP4       0.324500
     16 C09          1.1560   -15.2950    -4.3890 cc         1 QP4      -0.157000
     17 C22         -0.3390   -14.2790    -6.1300 ca         1 QP4      -0.147000
     18 C23         -0.5610   -13.2860    -7.1130 ca         1 QP4       0.337900
     19 C24          3.2000   -13.0340    -5.2380 c5         1 QP4      -0.127400
     20 C26          3.5140   -11.8140    -6.1050 ce         1 QP4       0.463900
     21 C27          4.7820   -11.0180    -5.9980 ca         1 QP4      -0.138900
     22 C28          4.9880    -9.8700    -6.8000 ca         1 QP4      -0.075500
     23 C29          6.1760    -9.1260    -6.6930 ca         1 QP4      -0.119500
     24 C30          5.7950   -11.3980    -5.0870 ca         1 QP4      -0.075500
     25 C31          7.1730    -9.5160    -5.7850 ca         1 QP4      -0.089000
     26 C32          6.9810   -10.6520    -4.9830 ca         1 QP4      -0.119500
     27 N10          1.4710   -15.0430    -3.0760 na         1 QP4      -0.283500
     28 N12          1.2900   -17.2400    -3.2750 nd         1 QP4      -0.684000
     29 N18          0.3480   -12.3310    -7.4300 nb         1 QP4      -0.617000
     30 N25          2.5470   -11.4870    -6.9260 nf         1 QP4      -0.601700
     31 O16          2.0580   -13.1270    -1.1160 os         1 QP4      -0.475000
     32 H1           0.8600   -16.5230    -0.4300 hc         1 QP4       0.068200
     33 H2           2.3160   -17.4000    -0.8320 hc         1 QP4       0.068200
     34 H3           3.0020   -15.7600     0.7000 hc         1 QP4       0.054200
     35 H4           3.6120   -15.1940    -0.8370 hc         1 QP4       0.054200
     36 H5           2.4210   -13.5340     0.9050 h1         1 QP4       0.052700
     37 H6           0.9160   -14.2070     0.2720 h1         1 QP4       0.052700
     38 H7           3.2500   -11.7050    -2.0860 h1         1 QP4       0.036033
     39 H8           3.5630   -11.8770    -0.3500 h1         1 QP4       0.036033
     40 H9           4.1330   -13.1230    -1.4880 h1         1 QP4       0.036033
     41 H10          0.3370   -19.2930    -4.5720 ha         1 QP4       0.126000
     42 H11          0.0300   -20.7480    -6.5490 ha         1 QP4       0.131000
     43 H12          1.0570   -17.4760    -9.1500 ha         1 QP4       0.131000
     44 H13          1.4070   -16.0120    -7.2060 ha         1 QP4       0.126000
     45 H14         -1.1130   -15.0120    -5.9220 ha         1 QP4       0.137000
     46 H15         -1.5010   -13.2570    -7.6620 h4         1 QP4       0.027100
     47 H16          3.2200   -12.7900    -4.1730 hc         1 QP4       0.088200
     48 H17          3.8950   -13.8590    -5.4280 hc         1 QP4       0.088200
     49 H18          4.2300    -9.5490    -7.5100 ha         1 QP4       0.124500
     50 H19          6.3230    -8.2460    -7.3150 ha         1 QP4       0.117500
     51 H20          5.6740   -12.2750    -4.4540 ha         1 QP4       0.124500
     52 H21          8.0920    -8.9390    -5.7030 ha         1 QP4       0.116000
     53 H22          7.7530   -10.9550    -4.2790 ha         1 QP4       0.117500
     54 H23          1.5980   -14.1420    -2.6250 hn         1 QP4       0.383000
     55 F07          0.3370   -19.9980    -9.0470 f          1 QP4      -0.181000
@<TRIPOS>BOND
     1     1     2 1   
     2     1    27 1   
     3     1    28 2   
     4     2     3 1   
     5     2    32 1   
     6     2    33 1   
     7     3     4 1   
     8     3    34 1   
     9     3    35 1   
    10     4    31 1   
    11     4    36 1   
    12     4    37 1   
    13     5    31 1   
    14     5    38 1   
    15     5    39 1   
    16     5    40 1   
    17     6     7 ar  
    18     6     8 ar  
    19     6    19 1   
    20     7    16 1   
    21     7    17 ar  
    22     8    29 ar  
    23     8    30 1   
    24     9    10 ar  
    25     9    14 ar  
    26     9    41 1   
    27    10    11 ar  
    28    10    42 1   
    29    11    12 ar  
    30    11    55 1   
    31    12    13 ar  
    32    12    43 1   
    33    13    14 ar  
    34    13    44 1   
    35    14    15 1   
    36    15    16 2   
    37    15    28 1   
    38    16    27 1   
    39    17    18 ar  
    40    17    45 1   
    41    18    29 ar  
    42    18    46 1   
    43    19    20 1   
    44    19    47 1   
    45    19    48 1   
    46    20    21 1   
    47    20    30 2   
    48    21    22 ar  
    49    21    24 ar  
    50    22    23 ar  
    51    22    49 1   
    52    23    25 ar  
    53    23    50 1   
    54    24    26 ar  
    55    24    51 1   
    56    25    26 ar  
    57    25    52 1   
    58    26    53 1   
    59    27    54 1   
@<TRIPOS>SUBSTRUCTURE
     1 QP4         1 TEMP              0 ****  ****    0 ROOT
