@<TRIPOS>MOLECULE
QP4
   55    59     1     0     0
SMALL
abcg2


@<TRIPOS>ATOM
      1 C11          1.6500   -16.2590    -2.5560 cc         1 QP4       0.412800
      2 C13          1.9400   -16.3810    -1.0980 c3         1 QP4      -0.103700
      3 C14          2.8530   -15.3310    -0.4600 c3         1 QP4      -0.113400
      4 C15          2.2060   -13.9840    -0.1560 c3         1 QP4       0.147600
      5 C17          3.2680   -12.3270    -1.4730 c3         1 QP4       0.134900
      6 C20          1.8550   -13.3100    -5.7450 ca         1 QP4      -0.173300
      7 C21          0.9570   -14.3340    -5.5150 ca         1 QP4       0.060000
      8 C19          1.5630   -12.3460    -6.7160 ca         1 QP4       0.505000
      9 C01          0.2170   -18.8690    -5.4820 ca         1 QP4      -0.066500
     10 C02         -0.0720   -19.7310    -6.5280 ca         1 QP4      -0.158000
     11 C03          0.2460   -19.3410    -7.8150 ca         1 QP4       0.171000
     12 C04          0.8480   -18.1270    -8.0820 ca         1 QP4      -0.158000
     13 C05          1.1350   -17.2790    -7.0230 ca         1 QP4      -0.066500
     14 C06          0.8130   -17.6270    -5.7100 ca         1 QP4      -0.123500
     15 C08          1.1110   -16.7500    -4.5750 cd         1 QP4       0.324500
     16 C09          1.1910   -15.3760    -4.5210 cc         1 QP4      -0.157000
     17 C22         -0.2050   -14.3120    -6.2990 ca         1 QP4      -0.147000
     18 C23         -0.3920   -13.3070    -7.2330 ca         1 QP4       0.337900
     19 C24          3.1980   -12.9740    -5.2030 c5         1 QP4      -0.127400
     20 C26          3.5060   -11.7260    -5.9950 ce         1 QP4       0.463900
     21 C27          4.7290   -10.9480    -5.8250 ca         1 QP4      -0.138900
     22 C28          4.9430    -9.7900    -6.5790 ca         1 QP4      -0.075500
     23 C29          6.1020    -9.0530    -6.4150 ca         1 QP4      -0.119500
     24 C30          5.7000   -11.3460    -4.9040 ca         1 QP4      -0.075500
     25 C31          7.0640    -9.4580    -5.4960 ca         1 QP4      -0.089000
     26 C32          6.8610   -10.6050    -4.7410 ca         1 QP4      -0.119500
     27 N10          1.5530   -15.0950    -3.2280 na         1 QP4      -0.283500
     28 N12          1.4000   -17.2750    -3.3480 nd         1 QP4      -0.684000
     29 N18          0.4760   -12.3170    -7.4570 nb         1 QP4      -0.617000
     30 N25          2.5820   -11.4000    -6.8310 nf         1 QP4      -0.601700
     31 O16          2.1060   -13.0990    -1.2600 os         1 QP4      -0.475000
     32 H1           0.9910   -16.3960    -0.5510 hc         1 QP4       0.068200
     33 H2           2.3760   -17.3700    -0.9530 hc         1 QP4       0.068200
     34 H3           3.1690   -15.7410     0.5010 hc         1 QP4       0.054200
     35 H4           3.7710   -15.2040    -1.0420 hc         1 QP4       0.054200
     36 H5           2.7630   -13.4920     0.6500 h1         1 QP4       0.052700
     37 H6           1.1880   -14.1420     0.2100 h1         1 QP4       0.052700
     38 H7           3.0330   -11.5710    -2.2220 h1         1 QP4       0.036033
     39 H8           3.5750   -11.8100    -0.5580 h1         1 QP4       0.036033
     40 H9           4.1170   -12.9230    -1.8250 h1         1 QP4       0.036033
     41 H10         -0.0280   -19.1660    -4.4710 ha         1 QP4       0.126000
     42 H11         -0.5400   -20.6890    -6.3420 ha         1 QP4       0.131000
     43 H12          1.1010   -17.8490    -9.0960 ha         1 QP4       0.131000
     44 H13          1.6310   -16.3420    -7.2350 ha         1 QP4       0.126000
     45 H14         -0.9650   -15.0700    -6.1720 ha         1 QP4       0.137000
     46 H15         -1.2960   -13.2980    -7.8310 h4         1 QP4       0.027100
     47 H16          3.2050   -12.7740    -4.1310 hc         1 QP4       0.088200
     48 H17          3.9370   -13.7620    -5.3790 hc         1 QP4       0.088200
     49 H18          4.1940    -9.4730    -7.2930 ha         1 QP4       0.124500
     50 H19          6.2570    -8.1580    -7.0030 ha         1 QP4       0.117500
     51 H20          5.5620   -12.2400    -4.3100 ha         1 QP4       0.124500
     52 H21          7.9700    -8.8800    -5.3700 ha         1 QP4       0.116000
     53 H22          7.6060   -10.9250    -4.0250 ha         1 QP4       0.117500
     54 H23          1.6400   -14.1800    -2.7920 hn         1 QP4       0.383000
     55 F07         -0.0330   -20.1690    -8.8350 f          1 QP4      -0.181000
@<TRIPOS>BOND
     1     1     2 1   
     2     1    27 1   
     3     1    28 2   
     4     2     3 1   
     5     2    32 1   
     6     2    33 1   
     7     3     4 1   
     8     3    34 1   
     9     3    35 1   
    10     4    31 1   
    11     4    36 1   
    12     4    37 1   
    13     5    31 1   
    14     5    38 1   
    15     5    39 1   
    16     5    40 1   
    17     6     7 ar  
    18     6     8 ar  
    19     6    19 1   
    20     7    16 1   
    21     7    17 ar  
    22     8    29 ar  
    23     8    30 1   
    24     9    10 ar  
    25     9    14 ar  
    26     9    41 1   
    27    10    11 ar  
    28    10    42 1   
    29    11    12 ar  
    30    11    55 1   
    31    12    13 ar  
    32    12    43 1   
    33    13    14 ar  
    34    13    44 1   
    35    14    15 1   
    36    15    16 2   
    37    15    28 1   
    38    16    27 1   
    39    17    18 ar  
    40    17    45 1   
    41    18    29 ar  
    42    18    46 1   
    43    19    20 1   
    44    19    47 1   
    45    19    48 1   
    46    20    21 1   
    47    20    30 2   
    48    21    22 ar  
    49    21    24 ar  
    50    22    23 ar  
    51    22    49 1   
    52    23    25 ar  
    53    23    50 1   
    54    24    26 ar  
    55    24    51 1   
    56    25    26 ar  
    57    25    52 1   
    58    26    53 1   
    59    27    54 1   
@<TRIPOS>SUBSTRUCTURE
     1 QP4         1 TEMP              0 ****  ****    0 ROOT
