@<TRIPOS>MOLECULE
QP6
   43    46     1     0     0
SMALL
abcg2


@<TRIPOS>ATOM
      1 N1         -16.3650     5.3160    27.4260 nb         1 QP6      -0.640000
      2 C4         -22.8240     4.6980    31.2200 ca         1 QP6       0.120100
      3 C5         -23.2420     3.6050    31.9870 ca         1 QP6       0.160000
      4 C6         -23.3180     2.3250    31.4840 ca         1 QP6      -0.146000
      5 C7         -22.9530     2.1430    30.1590 ca         1 QP6       0.152000
      6 C8         -22.5300     3.1800    29.3610 ca         1 QP6      -0.107000
      7 C10        -20.4750     5.5770    28.8730 c          1 QP6       0.611100
      8 C13        -16.0800     6.0240    26.3590 ca         1 QP6       0.340900
      9 C15        -16.7010     7.4820    24.4620 ca         1 QP6      -0.080000
     10 C17        -19.0060     8.1250    24.1910 ca         1 QP6      -0.091000
     11 O2         -19.7690     5.4150    29.8580 o          1 QP6      -0.573100
     12 C1         -22.0190     5.6240    29.0090 c6         1 QP6       0.161300
     13 C9         -22.4690     4.4710    29.8890 ca         1 QP6      -0.147300
     14 F          -23.5850     3.8250    33.2750 f          1 QP6      -0.162000
     15 O1         -22.8210     5.9100    31.8260 os         1 QP6      -0.327100
     16 C3         -22.1150     6.9680    31.1460 c6         1 QP6       0.160600
     17 C2         -22.4090     6.9640    29.6620 c6         1 QP6      -0.133400
     18 O          -22.5410     5.5030    27.6900 os         1 QP6      -0.485000
     19 C          -23.9560     5.5930    27.5250 c3         1 QP6       0.150900
     20 C11        -18.6920     5.8870    27.1860 ca         1 QP6      -0.069000
     21 C19        -18.4070     6.6720    26.0290 ca         1 QP6      -0.033000
     22 C18        -19.3750     7.3990    25.2970 ca         1 QP6      -0.110000
     23 C16        -17.6620     8.1660    23.7640 ca         1 QP6      -0.110000
     24 C14        -17.0500     6.7270    25.6050 ca         1 QP6      -0.083000
     25 C12        -17.6570     5.2450    27.8310 ca         1 QP6       0.309900
     26 H1         -23.6470     1.5030    32.1040 ha         1 QP6       0.154000
     27 H2         -22.2620     3.0010    28.3290 ha         1 QP6       0.145000
     28 H3         -15.0410     6.0630    26.0450 h4         1 QP6       0.022100
     29 H4         -15.6630     7.5100    24.1530 ha         1 QP6       0.120000
     30 H5         -19.7560     8.6790    23.6410 ha         1 QP6       0.115000
     31 H6         -21.0490     6.8510    31.3430 h1         1 QP6       0.077700
     32 H7         -22.4680     7.8880    31.6080 h1         1 QP6       0.077700
     33 H8         -21.8820     7.7860    29.1750 hc         1 QP6       0.069200
     34 H9         -23.4780     7.1200    29.5180 hc         1 QP6       0.069200
     35 H10        -24.1640     5.2210    26.5240 h1         1 QP6       0.042700
     36 H11        -24.4810     4.9730    28.2550 h1         1 QP6       0.042700
     37 H12        -24.3030     6.6250    27.6040 h1         1 QP6       0.042700
     38 H13        -20.7570     5.8950    26.9270 hn         1 QP6       0.179000
     39 H14        -20.4100     7.4020    25.6060 ha         1 QP6       0.112000
     40 H15        -17.3950     8.7440    22.8890 ha         1 QP6       0.119000
     41 H16        -17.8540     4.6450    28.7060 h4         1 QP6       0.048100
     42 N          -20.0240     5.7800    27.6140 ns         1 QP6      -0.132000
     43 F1         -23.0220     0.8910    29.6390 f          1 QP6      -0.176000
@<TRIPOS>BOND
     1     1     8 ar  
     2     1    25 ar  
     3     2     3 ar  
     4     2    13 ar  
     5     2    15 1   
     6     3     4 ar  
     7     3    14 1   
     8     4     5 ar  
     9     4    26 1   
    10     5     6 ar  
    11     5    43 1   
    12     6    13 ar  
    13     6    27 1   
    14     7    11 2   
    15     7    12 1   
    16     7    42 1   
    17     8    24 ar  
    18     8    28 1   
    19     9    23 ar  
    20     9    24 ar  
    21     9    29 1   
    22    10    22 ar  
    23    10    23 ar  
    24    10    30 1   
    25    12    13 1   
    26    12    17 1   
    27    12    18 1   
    28    15    16 1   
    29    16    17 1   
    30    16    31 1   
    31    16    32 1   
    32    17    33 1   
    33    17    34 1   
    34    18    19 1   
    35    19    35 1   
    36    19    36 1   
    37    19    37 1   
    38    20    21 ar  
    39    20    25 ar  
    40    20    42 1   
    41    21    22 ar  
    42    21    24 ar  
    43    22    39 1   
    44    23    40 1   
    45    25    41 1   
    46    38    42 1   
@<TRIPOS>SUBSTRUCTURE
     1 QP6         1 TEMP              0 ****  ****    0 ROOT
