@<TRIPOS>MOLECULE
QP6
   43    46     1     0     0
SMALL
No Charge or Current Charge


@<TRIPOS>ATOM
      1 N1         -16.7640     4.3900    26.4710 nb         1 QP6      -0.640000
      2 C4         -22.5590     5.4240    30.6700 ca         1 QP6       0.120100
      3 C5         -22.5520     4.9820    32.0110 ca         1 QP6       0.160000
      4 C6         -22.4370     3.6180    32.3140 ca         1 QP6      -0.146000
      5 C7         -22.3370     2.6880    31.2720 ca         1 QP6       0.152000
      6 C8         -22.3570     3.1110    29.9340 ca         1 QP6      -0.107000
      7 C10        -21.1170     4.5460    27.4980 c          1 QP6       0.611100
      8 C13        -16.2030     5.5560    26.0810 ca         1 QP6       0.340900
      9 C15        -16.2530     7.9650    25.6740 ca         1 QP6      -0.080000
     10 C17        -18.2940     9.2190    26.0950 ca         1 QP6      -0.091000
     11 O2         -20.8700     3.4130    27.0900 o          1 QP6      -0.573100
     12 C1         -22.5330     4.9170    28.1190 c6         1 QP6       0.161300
     13 C9         -22.4730     4.4840    29.6090 ca         1 QP6      -0.147300
     14 F          -22.6480     5.8740    33.0240 f          1 QP6      -0.162000
     15 O1         -22.6750     6.7760    30.4200 os         1 QP6      -0.327100
     16 C3         -22.2710     7.2890    29.1420 c6         1 QP6       0.160600
     17 C2         -22.8910     6.4440    28.0090 c6         1 QP6      -0.133400
     18 O          -23.5690     4.0920    27.4880 os         1 QP6      -0.485000
     19 C          -24.9240     4.1040    28.0010 c3         1 QP6       0.150900
     20 C11        -18.8450     5.5920    26.9110 ca         1 QP6      -0.069000
     21 C19        -18.2430     6.8100    26.5080 ca         1 QP6      -0.033000
     22 C18        -18.9400     8.0410    26.5070 ca         1 QP6      -0.110000
     23 C16        -16.9530     9.1830    25.6800 ca         1 QP6      -0.110000
     24 C14        -16.8960     6.7820    26.0860 ca         1 QP6      -0.083000
     25 C12        -18.0550     4.4150    26.8760 ca         1 QP6       0.309900
     26 H1         -22.4270     3.2850    33.3470 ha         1 QP6       0.154000
     27 H2         -22.2970     2.3620    29.1480 ha         1 QP6       0.145000
     28 H3         -15.1630     5.5050    25.7600 h4         1 QP6       0.022100
     29 H4         -15.2150     7.9430    25.3490 ha         1 QP6       0.120000
     30 H5         -18.8350    10.1630    26.0960 ha         1 QP6       0.115000
     31 H6         -21.1740     7.2840    29.0970 h1         1 QP6       0.077700
     32 H7         -22.6010     8.3340    29.0600 h1         1 QP6       0.077700
     33 H8         -22.5930     6.8410    27.0290 hc         1 QP6       0.069200
     34 H9         -23.9740     6.5990    28.0600 hc         1 QP6       0.069200
     35 H10        -25.5170     3.3240    27.5070 h1         1 QP6       0.042700
     36 H11        -24.9520     3.9080    29.0800 h1         1 QP6       0.042700
     37 H12        -25.4230     5.0610    27.8070 h1         1 QP6       0.042700
     38 H13        -20.5380     6.4860    27.6580 hn         1 QP6       0.179000
     39 H14        -19.9800     8.1040    26.8150 ha         1 QP6       0.112000
     40 H15        -16.4560    10.0970    25.3620 ha         1 QP6       0.119000
     41 H16        -18.4480     3.4560    27.2070 h4         1 QP6       0.048100
     42 N          -20.1970     5.5820    27.3670 ns         1 QP6      -0.132000
     43 F1         -22.2310     1.3720    31.5580 f          1 QP6      -0.176000
@<TRIPOS>BOND
     1     1     8 ar  
     2     1    25 ar  
     3     2     3 ar  
     4     2    13 ar  
     5     2    15 1   
     6     3     4 ar  
     7     3    14 1   
     8     4     5 ar  
     9     4    26 1   
    10     5     6 ar  
    11     5    43 1   
    12     6    13 ar  
    13     6    27 1   
    14     7    11 2   
    15     7    12 1   
    16     7    42 1   
    17     8    24 ar  
    18     8    28 1   
    19     9    23 ar  
    20     9    24 ar  
    21     9    29 1   
    22    10    22 ar  
    23    10    23 ar  
    24    10    30 1   
    25    12    13 1   
    26    12    17 1   
    27    12    18 1   
    28    15    16 1   
    29    16    17 1   
    30    16    31 1   
    31    16    32 1   
    32    17    33 1   
    33    17    34 1   
    34    18    19 1   
    35    19    35 1   
    36    19    36 1   
    37    19    37 1   
    38    20    21 ar  
    39    20    25 ar  
    40    20    42 1   
    41    21    22 ar  
    42    21    24 ar  
    43    22    39 1   
    44    23    40 1   
    45    25    41 1   
    46    38    42 1   
@<TRIPOS>SUBSTRUCTURE
     1 QP6         1 TEMP              0 ****  ****    0 ROOT
