@<TRIPOS>MOLECULE
QP7
   52    56     1     0     0
SMALL
bcc


@<TRIPOS>ATOM
      1 C11         24.4060   -16.1100    45.0760 cc         1 QP7       0.415800
      2 C13         24.0900   -16.0150    43.6240 c3         1 QP7      -0.099700
      3 C14         24.4220   -17.2880    42.8590 c3         1 QP7      -0.073400
      4 C15         24.1040   -17.1330    41.3850 c3         1 QP7       0.139400
      5 C18         24.3920   -12.5970    49.5670 ca         1 QP7       0.438800
      6 C23         22.8970   -12.9720    47.8910 cc         1 QP7      -0.182200
      7 C26         21.3420   -11.0140    48.4170 ca         1 QP7      -0.041800
      8 C27         21.2850    -9.7230    48.9480 ca         1 QP7      -0.114500
      9 C28         20.1710    -8.9240    48.7420 ca         1 QP7      -0.124500
     10 C29         20.2540   -11.4800    47.6730 ca         1 QP7      -0.114500
     11 C30         19.0980    -9.3950    47.9980 ca         1 QP7      -0.118000
     12 C31         19.1450   -10.6770    47.4640 ca         1 QP7      -0.124500
     13 C01         25.8060   -19.0190    47.7250 ca         1 QP7      -0.083000
     14 C02         26.0670   -20.0000    48.6690 ca         1 QP7      -0.176500
     15 C03         25.6690   -19.7850    49.9740 ca         1 QP7       0.134900
     16 C04         25.0140   -18.6300    50.3560 ca         1 QP7      -0.176500
     17 C05         24.7590   -17.6610    49.3990 ca         1 QP7      -0.083000
     18 C06         25.1610   -17.8310    48.0730 ca         1 QP7      -0.124500
     19 C08         24.8890   -16.8260    47.0430 cd         1 QP7       0.389800
     20 C09         24.7820   -15.4560    47.1510 cc         1 QP7      -0.155600
     21 C19         24.1010   -13.4520    48.4780 ca         1 QP7      -0.200100
     22 C20         24.9780   -14.5210    48.2500 ca         1 QP7       0.064000
     23 C21         26.0540   -14.6350    49.1250 ca         1 QP7      -0.255300
     24 C22         26.2190   -13.7230    50.1680 ca         1 QP7       0.423200
     25 C25         22.5060   -11.8710    48.6140 cd         1 QP7       0.014700
     26 N10         24.4560   -15.0340    45.8880 na         1 QP7      -0.289900
     27 N12         24.6590   -17.2040    45.7490 nd         1 QP7      -0.671000
     28 N17         25.4060   -12.7020    50.4070 nb         1 QP7      -0.677000
     29 N24         23.4190   -11.6480    49.6150 na         1 QP7      -0.270100
     30 O16         24.4190   -18.3390    40.7220 oh         1 QP7      -0.593800
     31 H1          24.6340   -15.1670    43.1960 hc         1 QP7       0.047700
     32 H2          23.0280   -15.7760    43.5040 hc         1 QP7       0.047700
     33 H3          23.8560   -18.1270    43.2710 hc         1 QP7       0.072200
     34 H4          25.4820   -17.5270    42.9820 hc         1 QP7       0.072200
     35 H5          24.6780   -16.2900    40.9770 h1         1 QP7       0.012700
     36 H6          23.0430   -16.8760    41.2680 h1         1 QP7       0.012700
     37 H7          22.3780   -13.3720    47.0350 ha         1 QP7       0.155000
     38 H8          22.1170    -9.3190    49.5110 ha         1 QP7       0.132000
     39 H9          20.1460    -7.9260    49.1590 ha         1 QP7       0.135000
     40 H10         20.2690   -12.4830    47.2660 ha         1 QP7       0.132000
     41 H11         18.2310    -8.7680    47.8360 ha         1 QP7       0.135000
     42 H12         18.3120   -11.0570    46.8870 ha         1 QP7       0.135000
     43 H13         26.1140   -19.1790    46.7000 ha         1 QP7       0.146000
     44 H14         26.5730   -20.9150    48.3920 ha         1 QP7       0.148500
     45 H15         24.6970   -18.4910    51.3820 ha         1 QP7       0.148500
     46 H16         24.2260   -16.7680    49.6970 ha         1 QP7       0.146000
     47 H17         26.7800   -15.4260    49.0000 ha         1 QP7       0.153000
     48 H18         27.0650   -13.8310    50.8370 h4         1 QP7       0.024100
     49 H19         24.3570   -14.0730    45.5970 hn         1 QP7       0.306700
     50 H21         23.3430   -10.9530    50.3400 hn         1 QP7       0.312700
     51 H22         24.2340   -18.2240    39.7860 ho         1 QP7       0.403000
     52 F07         25.9200   -20.7280    50.8970 f          1 QP7      -0.146900
@<TRIPOS>BOND
     1     1     2 1   
     2     1    26 1   
     3     1    27 2   
     4     2     3 1   
     5     2    31 1   
     6     2    32 1   
     7     3     4 1   
     8     3    33 1   
     9     3    34 1   
    10     4    30 1   
    11     4    35 1   
    12     4    36 1   
    13     5    21 ar  
    14     5    28 ar  
    15     5    29 1   
    16     6    21 1   
    17     6    25 2   
    18     6    37 1   
    19     7     8 ar  
    20     7    10 ar  
    21     7    25 1   
    22     8     9 ar  
    23     8    38 1   
    24     9    11 ar  
    25     9    39 1   
    26    10    12 ar  
    27    10    40 1   
    28    11    12 ar  
    29    11    41 1   
    30    12    42 1   
    31    13    14 ar  
    32    13    18 ar  
    33    13    43 1   
    34    14    15 ar  
    35    14    44 1   
    36    15    16 ar  
    37    15    52 1   
    38    16    17 ar  
    39    16    45 1   
    40    17    18 ar  
    41    17    46 1   
    42    18    19 1   
    43    19    20 2   
    44    19    27 1   
    45    20    22 1   
    46    20    26 1   
    47    21    22 ar  
    48    22    23 ar  
    49    23    24 ar  
    50    23    47 1   
    51    24    28 ar  
    52    24    48 1   
    53    25    29 1   
    54    26    49 1   
    55    29    50 1   
    56    30    51 1   
@<TRIPOS>SUBSTRUCTURE
     1 QP7         1 TEMP              0 ****  ****    0 ROOT
