@<TRIPOS>MOLECULE
QP7
   52    56     1     0     0
SMALL
No Charge or Current Charge


@<TRIPOS>ATOM
      1 C11         24.0360   -16.5060    45.0710 cc         1 QP7       0.415800
      2 C13         23.6280   -16.6370    43.6290 c3         1 QP7      -0.099700
      3 C14         24.8330   -16.6830    42.6620 c3         1 QP7      -0.073400
      4 C15         24.4170   -16.8210    41.1840 c3         1 QP7       0.162600
      5 C18         24.7390   -12.6060    49.2840 ca         1 QP7       0.373500
      6 C23         23.0100   -13.1010    47.8950 cc         1 QP7      -0.232200
      7 C26         21.4690   -11.1210    48.4400 ca         1 QP7      -0.041800
      8 C27         21.3010    -9.9430    49.2020 ca         1 QP7      -0.096500
      9 C28         20.1320    -9.1710    49.0830 ca         1 QP7      -0.106500
     10 C29         20.4360   -11.5050    47.5550 ca         1 QP7      -0.096500
     11 C30         19.1140    -9.5640    48.2010 ca         1 QP7      -0.100000
     12 C31         19.2670   -10.7320    47.4370 ca         1 QP7      -0.106500
     13 C01         25.0450   -19.2230    48.1340 ca         1 QP7      -0.065000
     14 C02         25.2110   -20.0710    49.2430 ca         1 QP7      -0.158500
     15 C03         25.1330   -19.5490    50.5390 ca         1 QP7       0.170000
     16 C04         24.8740   -18.1860    50.7340 ca         1 QP7      -0.158500
     17 C05         24.7090   -17.3360    49.6260 ca         1 QP7      -0.065000
     18 C06         24.8230   -17.8350    48.3050 ca         1 QP7      -0.124500
     19 C08         24.6190   -16.9720    47.1110 cd         1 QP7       0.324500
     20 C09         24.6280   -15.5960    46.9910 cc         1 QP7      -0.141000
     21 C19         24.3030   -13.5180    48.3520 ca         1 QP7      -0.134800
     22 C20         25.0650   -14.6400    48.0040 ca         1 QP7       0.064000
     23 C21         26.3090   -14.7610    48.6500 ca         1 QP7      -0.172000
     24 C22         26.6930   -13.7890    49.5960 ca         1 QP7       0.357900
     25 C25         22.7010   -11.9290    48.5690 cd         1 QP7       0.014700
     26 N10         24.2500   -15.3090    45.7020 na         1 QP7      -0.289500
     27 N12         24.2430   -17.5200    45.8950 nd         1 QP7      -0.671000
     28 N17         25.9220   -12.7190    49.9170 nb         1 QP7      -0.677000
     29 N24         23.7820   -11.6230    49.4300 na         1 QP7      -0.320400
     30 O16         25.5820   -16.8550    40.3560 oh         1 QP7      -0.656000
     31 H1          22.9780   -15.7970    43.3560 hc         1 QP7       0.047700
     32 H2          23.0280   -17.5460    43.5010 hc         1 QP7       0.047700
     33 H3          25.4800   -17.5270    42.9330 hc         1 QP7       0.072200
     34 H4          25.4310   -15.7710    42.7830 hc         1 QP7       0.072200
     35 H5          23.7780   -15.9730    40.9060 h1         1 QP7       0.012700
     36 H6          23.8330   -17.7430    41.0560 h1         1 QP7       0.012700
     37 H7          22.3810   -13.6120    47.1720 ha         1 QP7       0.205000
     38 H8          22.0730    -9.6150    49.8930 ha         1 QP7       0.114000
     39 H9          20.0160    -8.2660    49.6760 ha         1 QP7       0.117000
     40 H10         20.5260   -12.4030    46.9520 ha         1 QP7       0.114000
     41 H11         18.2100    -8.9660    48.1090 ha         1 QP7       0.117000
     42 H12         18.4800   -11.0390    46.7520 ha         1 QP7       0.117000
     43 H13         25.1090   -19.6500    47.1350 ha         1 QP7       0.128000
     44 H14         25.3970   -21.1320    49.0960 ha         1 QP7       0.130500
     45 H15         24.7880   -17.7910    51.7430 ha         1 QP7       0.130500
     46 H16         24.4580   -16.2970    49.8150 ha         1 QP7       0.128000
     47 H17         26.9740   -15.5900    48.4270 ha         1 QP7       0.135000
     48 H18         27.6510   -13.8670    50.1090 h4         1 QP7       0.024100
     49 H19         24.1760   -14.3950    45.2740 hn         1 QP7       0.357000
     50 H21         23.8560   -10.8320    50.0530 hn         1 QP7       0.363000
     51 H22         25.2700   -16.9460    39.4280 ho         1 QP7       0.442000
     52 F07         25.2870   -20.3640    51.6050 f          1 QP7      -0.182000
@<TRIPOS>BOND
     1     1     2 1   
     2     1    26 1   
     3     1    27 2   
     4     2     3 1   
     5     2    31 1   
     6     2    32 1   
     7     3     4 1   
     8     3    33 1   
     9     3    34 1   
    10     4    30 1   
    11     4    35 1   
    12     4    36 1   
    13     5    21 ar  
    14     5    28 ar  
    15     5    29 1   
    16     6    21 1   
    17     6    25 2   
    18     6    37 1   
    19     7     8 ar  
    20     7    10 ar  
    21     7    25 1   
    22     8     9 ar  
    23     8    38 1   
    24     9    11 ar  
    25     9    39 1   
    26    10    12 ar  
    27    10    40 1   
    28    11    12 ar  
    29    11    41 1   
    30    12    42 1   
    31    13    14 ar  
    32    13    18 ar  
    33    13    43 1   
    34    14    15 ar  
    35    14    44 1   
    36    15    16 ar  
    37    15    52 1   
    38    16    17 ar  
    39    16    45 1   
    40    17    18 ar  
    41    17    46 1   
    42    18    19 1   
    43    19    20 2   
    44    19    27 1   
    45    20    22 1   
    46    20    26 1   
    47    21    22 ar  
    48    22    23 ar  
    49    23    24 ar  
    50    23    47 1   
    51    24    28 ar  
    52    24    48 1   
    53    25    29 1   
    54    26    49 1   
    55    29    50 1   
    56    30    51 1   
@<TRIPOS>SUBSTRUCTURE
     1 QP7         1 TEMP              0 ****  ****    0 ROOT
