@<TRIPOS>MOLECULE
QP8
   52    54     1     0     0
SMALL
No Charge or Current Charge


@<TRIPOS>ATOM
      1 C4          20.9380    -5.7940    20.9560 ca         1 QP8      -0.050000
      2 C5          19.8280    -5.0880    20.4650 ca         1 QP8      -0.169000
      3 C6          23.2570    -5.9150    21.9730 cp         1 QP8       0.377500
      4 N1          25.5940    -5.9770    22.3600 nb         1 QP8      -0.368000
      5 C7          25.4940    -7.2010    22.9170 ca         1 QP8       0.511900
      6 C8          24.2360    -7.8800    23.0410 ca         1 QP8       0.231000
      7 N2          24.1060    -9.1780    23.6330 nh         1 QP8      -0.783400
      8 C9          23.1030    -7.1990    22.5540 ca         1 QP8      -0.154000
      9 C10         23.1070   -10.1510    23.1190 c6         1 QP8       0.166800
     10 C11         23.5190   -11.6150    23.4310 c6         1 QP8       0.107500
     11 C12         24.7210   -10.7570    25.5000 c6         1 QP8       0.107500
     12 N3          23.9740   -11.8750    24.8330 n          1 QP8      -0.414800
     13 C13         24.2800    -9.3220    25.1010 c6         1 QP8       0.166800
     14 C14         24.0830   -13.2020    25.2880 c          1 QP8       0.661100
     15 C15         24.9720   -14.5180    27.1920 c3         1 QP8       0.225000
     16 N4          26.6960    -7.7240    23.3120 nv         1 QP8      -1.037900
     17 O           23.6410   -14.1540    24.6620 o          1 QP8      -0.547000
     18 O1          24.7280   -13.2710    26.5010 os         1 QP8      -0.477100
     19 C18         23.6210   -15.1880    27.5540 c3         1 QP8      -0.108767
     20 C17         25.7110   -14.0970    28.4810 c3         1 QP8      -0.108767
     21 C16         25.8890   -15.4230    26.3290 c3         1 QP8      -0.108767
     22 N           24.4920    -5.3510    21.8990 nb         1 QP8      -0.374000
     23 C3          22.0940    -5.1190    21.4380 cp         1 QP8      -0.266500
     24 C2          22.0820    -3.6950    21.3900 ca         1 QP8       0.207100
     25 O2          23.1410    -2.9600    21.8240 oh         1 QP8      -0.555100
     26 C1          20.9670    -2.9960    20.9020 ca         1 QP8      -0.173000
     27 C           19.8380    -3.6880    20.4390 ca         1 QP8      -0.051000
     28 H1          20.8980    -6.8810    20.9460 ha         1 QP8       0.102000
     29 H2          18.9580    -5.6310    20.1010 ha         1 QP8       0.115000
     30 H3          22.1190    -7.6410    22.6480 ha         1 QP8       0.133000
     31 H4          22.9870   -10.0460    22.0310 h1         1 QP8       0.055200
     32 H5          22.1260    -9.9570    23.5780 h1         1 QP8       0.055200
     33 H6          22.6700   -12.2700    23.1920 h1         1 QP8       0.062950
     34 H7          24.3380   -11.8940    22.7530 h1         1 QP8       0.062950
     35 H8          24.6280   -10.8430    26.5910 h1         1 QP8       0.062950
     36 H9          25.7870   -10.8720    25.2590 h1         1 QP8       0.062950
     37 H10         25.0250    -8.6060    25.4800 h1         1 QP8       0.055200
     38 H11         23.3300    -9.0940    25.6070 h1         1 QP8       0.055200
     39 H12         27.5310    -7.3110    22.9120 hn         1 QP8       0.473000
     40 H13         26.7130    -8.7250    23.4800 hn         1 QP8       0.473000
     41 H14         23.7790   -16.0010    28.2730 hc         1 QP8       0.050144
     42 H15         22.9370   -14.4630    28.0100 hc         1 QP8       0.050144
     43 H16         23.1300   -15.6240    26.6770 hc         1 QP8       0.050144
     44 H17         25.9530   -14.9710    29.0960 hc         1 QP8       0.050144
     45 H18         26.6490   -13.5800    28.2410 hc         1 QP8       0.050144
     46 H19         25.0930   -13.4190    29.0820 hc         1 QP8       0.050144
     47 H20         26.2700   -16.2600    26.9270 hc         1 QP8       0.050144
     48 H21         25.3550   -15.8530    25.4750 hc         1 QP8       0.050144
     49 H22         26.7490   -14.8580    25.9520 hc         1 QP8       0.050144
     50 H23         23.8770    -3.6010    21.9780 ho         1 QP8       0.526000
     51 H24         20.9780    -1.9100    20.8800 ha         1 QP8       0.130000
     52 H25         18.9770    -3.1400    20.0600 ha         1 QP8       0.114000
@<TRIPOS>BOND
     1     1     2 ar  
     2     1    23 ar  
     3     1    28 1   
     4     2    27 ar  
     5     2    29 1   
     6     3     8 ar  
     7     3    22 ar  
     8     3    23 1   
     9     4     5 ar  
    10     4    22 ar  
    11     5     6 ar  
    12     5    16 1   
    13     6     7 1   
    14     6     8 ar  
    15     7     9 1   
    16     7    13 1   
    17     8    30 1   
    18     9    10 1   
    19     9    31 1   
    20     9    32 1   
    21    10    12 1   
    22    10    33 1   
    23    10    34 1   
    24    11    12 1   
    25    11    13 1   
    26    11    35 1   
    27    11    36 1   
    28    12    14 1   
    29    13    37 1   
    30    13    38 1   
    31    14    17 2   
    32    14    18 1   
    33    15    18 1   
    34    15    19 1   
    35    15    20 1   
    36    15    21 1   
    37    16    39 1   
    38    16    40 1   
    39    19    41 1   
    40    19    42 1   
    41    19    43 1   
    42    20    44 1   
    43    20    45 1   
    44    20    46 1   
    45    21    47 1   
    46    21    48 1   
    47    21    49 1   
    48    23    24 ar  
    49    24    25 1   
    50    24    26 ar  
    51    25    50 1   
    52    26    27 ar  
    53    26    51 1   
    54    27    52 1   
@<TRIPOS>SUBSTRUCTURE
     1 QP8         1 TEMP              0 ****  ****    0 ROOT
