@<TRIPOS>MOLECULE
QP8
   52    54     1     0     0
SMALL
bcc


@<TRIPOS>ATOM
      1 C4          20.7590    -6.1130    21.5620 ca         1 QP8      -0.068000
      2 C5          19.5850    -5.5330    21.1230 ca         1 QP8      -0.187000
      3 C6          23.1680    -6.0230    22.2270 cp         1 QP8       0.442800
      4 N1          25.4100    -5.7380    22.7050 nb         1 QP8      -0.368000
      5 C7          25.5370    -7.0040    23.0420 ca         1 QP8       0.577200
      6 C8          24.4240    -7.9000    23.0320 ca         1 QP8       0.027300
      7 N2          24.6170    -9.2240    23.3990 nh         1 QP8      -0.645000
      8 C9          23.2360    -7.3830    22.5880 ca         1 QP8      -0.237300
      9 C10         23.6470   -10.1910    22.9170 c6         1 QP8       0.166800
     10 C11         24.2000   -11.5950    23.0820 c6         1 QP8       0.107500
     11 C12         25.4790   -10.8550    25.0110 c6         1 QP8       0.107500
     12 N3          24.5670   -11.8400    24.4610 n          1 QP8      -0.481800
     13 C13         24.9280    -9.4560    24.8110 c6         1 QP8       0.166800
     14 C14         24.2490   -13.0200    25.0510 c          1 QP8       0.777100
     15 C15         24.5670   -14.2610    27.1340 c3         1 QP8       0.201800
     16 N4          26.7720    -7.4410    23.4150 nv         1 QP8      -0.927500
     17 O           23.5780   -13.8790    24.5130 o          1 QP8      -0.596000
     18 O1          24.7500   -13.1010    26.2790 os         1 QP8      -0.453900
     19 C18         23.0950   -14.4860    27.4530 c3         1 QP8      -0.108767
     20 C17         25.3150   -13.8670    28.4030 c3         1 QP8      -0.108767
     21 C16         25.2060   -15.5000    26.5180 c3         1 QP8      -0.108767
     22 N           24.2440    -5.2630    22.3250 nb         1 QP8      -0.374000
     23 C3          21.9320    -5.3740    21.7500 cp         1 QP8      -0.266500
     24 C2          21.8920    -3.9890    21.4660 ca         1 QP8       0.207100
     25 O2          22.9530    -3.1900    21.5990 oh         1 QP8      -0.516100
     26 C1          20.7000    -3.4080    21.0250 ca         1 QP8      -0.191000
     27 C           19.5590    -4.1680    20.8560 ca         1 QP8      -0.069000
     28 H1          20.7550    -7.1760    21.7600 ha         1 QP8       0.120000
     29 H2          18.6990    -6.1390    20.9880 ha         1 QP8       0.133000
     30 H3          22.3590    -8.0110    22.5420 ha         1 QP8       0.151000
     31 H4          23.4580   -10.0140    21.8580 h1         1 QP8       0.055200
     32 H5          22.6890   -10.1110    23.4500 h1         1 QP8       0.055200
     33 H6          23.4490   -12.3120    22.7640 h1         1 QP8       0.062950
     34 H7          25.0760   -11.7150    22.4340 h1         1 QP8       0.062950
     35 H8          25.6250   -11.0180    26.0740 h1         1 QP8       0.062950
     36 H9          26.4570   -10.9400    24.5230 h1         1 QP8       0.062950
     37 H10         25.6670    -8.7370    25.1600 h1         1 QP8       0.055200
     38 H11         24.0250    -9.3260    25.4220 h1         1 QP8       0.055200
     39 H12         27.5340    -6.8310    23.1620 hn         1 QP8       0.417800
     40 H13         26.9600    -8.4150    23.2370 hn         1 QP8       0.417800
     41 H14         23.0110   -15.2430    28.2330 hc         1 QP8       0.050144
     42 H15         22.6300   -13.5730    27.8300 hc         1 QP8       0.050144
     43 H16         22.5320   -14.8350    26.5910 hc         1 QP8       0.050144
     44 H17         25.2520   -14.6740    29.1330 hc         1 QP8       0.050144
     45 H18         26.3700   -13.6780    28.2020 hc         1 QP8       0.050144
     46 H19         24.8850   -12.9720    28.8560 hc         1 QP8       0.050144
     47 H20         25.2070   -16.3040    27.2550 hc         1 QP8       0.050144
     48 H21         24.6640   -15.8510    25.6440 hc         1 QP8       0.050144
     49 H22         26.2420   -15.3090    26.2360 hc         1 QP8       0.050144
     50 H23         23.7150    -3.7610    21.8930 ho         1 QP8       0.487000
     51 H24         20.6890    -2.3450    20.8170 ha         1 QP8       0.148000
     52 H25         18.6480    -3.6960    20.5120 ha         1 QP8       0.132000
@<TRIPOS>BOND
     1     1     2 ar  
     2     1    23 ar  
     3     1    28 1   
     4     2    27 ar  
     5     2    29 1   
     6     3     8 ar  
     7     3    22 ar  
     8     3    23 1   
     9     4     5 ar  
    10     4    22 ar  
    11     5     6 ar  
    12     5    16 1   
    13     6     7 1   
    14     6     8 ar  
    15     7     9 1   
    16     7    13 1   
    17     8    30 1   
    18     9    10 1   
    19     9    31 1   
    20     9    32 1   
    21    10    12 1   
    22    10    33 1   
    23    10    34 1   
    24    11    12 1   
    25    11    13 1   
    26    11    35 1   
    27    11    36 1   
    28    12    14 1   
    29    13    37 1   
    30    13    38 1   
    31    14    17 2   
    32    14    18 1   
    33    15    18 1   
    34    15    19 1   
    35    15    20 1   
    36    15    21 1   
    37    16    39 1   
    38    16    40 1   
    39    19    41 1   
    40    19    42 1   
    41    19    43 1   
    42    20    44 1   
    43    20    45 1   
    44    20    46 1   
    45    21    47 1   
    46    21    48 1   
    47    21    49 1   
    48    23    24 ar  
    49    24    25 1   
    50    24    26 ar  
    51    25    50 1   
    52    26    27 ar  
    53    26    51 1   
    54    27    52 1   
@<TRIPOS>SUBSTRUCTURE
     1 QP8         1 TEMP              0 ****  ****    0 ROOT
