@<TRIPOS>MOLECULE
QP9
   50    53     1     0     0
SMALL
No Charge or Current Charge


@<TRIPOS>ATOM
      1 C02        -44.4690   -29.8130     2.8920 c          1 QP9       0.714000
      2 C03        -45.0810   -29.8130     1.4610 c5         1 QP9      -0.206700
      3 C04        -44.0250   -30.4150     0.4460 c5         1 QP9      -0.004100
      4 C05        -44.5020   -31.8420     0.3260 ca         1 QP9      -0.079300
      5 C06        -43.7930   -32.9290    -0.2170 ca         1 QP9       0.126100
      6 C08        -44.4030   -34.1970    -0.2510 ca         1 QP9      -0.211000
      7 C09        -45.7090   -34.3670     0.2510 ca         1 QP9      -0.096000
      8 C10        -46.4080   -33.2690     0.7870 ca         1 QP9      -0.120000
      9 C11        -45.7820   -32.0110     0.8200 ca         1 QP9      -0.038300
     10 C12        -46.3790   -30.7230     1.3270 c5         1 QP9       0.167000
     11 C15        -48.4490   -29.9490     4.4370 ca         1 QP9       0.184500
     12 C17        -48.5880   -31.0440     6.4660 ca         1 QP9       0.227900
     13 C18        -49.5050   -30.0520     6.9410 ca         1 QP9       0.568900
     14 C20        -51.2180   -29.3000     8.6840 c6         1 QP9       0.246500
     15 C21        -52.5300   -29.9310     8.1570 c6         1 QP9      -0.128900
     16 C22        -53.7510   -29.2020     8.7620 c6         1 QP9       0.156100
     17 C24        -52.5060   -28.5670    10.7410 c6         1 QP9       0.156100
     18 C25        -51.2260   -29.2680    10.2300 c6         1 QP9      -0.128900
     19 C27        -49.3590   -28.9700     4.9240 ca         1 QP9       0.378900
     20 N13        -47.0150   -30.7950     2.6450 ns         1 QP9      -0.447900
     21 N16        -48.0520   -31.0080     5.2150 nb         1 QP9      -0.560000
     22 N19        -50.0570   -30.0790     8.2220 nu         1 QP9      -0.938100
     23 N26        -49.8950   -29.0110     6.1780 nb         1 QP9      -0.747000
     24 O01        -44.3610   -28.7440     3.4730 o          1 QP9      -0.728500
     25 O07        -42.5330   -32.7660    -0.7110 oh         1 QP9      -0.540100
     26 O23        -53.6710   -29.2300    10.2040 os         1 QP9      -0.465000
     27 O28        -48.2500   -28.9050     2.2660 o          1 QP9      -0.667100
     28 O29        -44.0820   -30.8580     3.3960 o          1 QP9      -0.728500
     29 H031       -45.3220   -28.7750     1.2070 hc         1 QP9       0.054700
     30 H042       -44.0700   -29.9060    -0.5230 hc         1 QP9       0.049700
     31 H041       -42.9940   -30.3330     0.8080 hc         1 QP9       0.049700
     32 H081       -43.8730   -35.0500    -0.6660 ha         1 QP9       0.092000
     33 H091       -46.1810   -35.3470     0.2210 ha         1 QP9       0.093000
     34 H101       -47.4200   -33.3930     1.1680 ha         1 QP9       0.115000
     35 H121       -47.0560   -30.3280     0.5570 h1         1 QP9       0.061700
     36 H171       -48.2850   -31.8760     7.1010 h4         1 QP9       0.027100
     37 H201       -51.1550   -28.2570     8.3320 h1         1 QP9       0.080700
     38 H222       -53.7840   -28.1580     8.4190 h1         1 QP9       0.045450
     39 H221       -54.6800   -29.6970     8.4450 h1         1 QP9       0.045450
     40 H241       -52.5130   -27.5100    10.4350 h1         1 QP9       0.045450
     41 H242       -52.5440   -28.6070    11.8390 h1         1 QP9       0.045450
     42 H252       -50.3390   -28.7390    10.6030 hc         1 QP9       0.057700
     43 H251       -51.1860   -30.2880    10.6370 hc         1 QP9       0.057700
     44 H271       -49.6690   -28.1330     4.3000 h4         1 QP9       0.043100
     45 H131       -46.7850   -31.4900     3.3490 hn         1 QP9       0.384500
     46 H191       -49.7430   -30.8540     8.8050 hn         1 QP9       0.489000
     47 H071       -42.2190   -33.6360    -1.0380 ho         1 QP9       0.443000
     48 C14        -47.9120   -29.8110     3.0220 c          1 QP9       0.511600
     49 H211       -52.5700   -29.8690     7.0610 hc         1 QP9       0.057700
     50 H212       -52.5740   -30.9960     8.4190 hc         1 QP9       0.057700
@<TRIPOS>BOND
     1     1     2 1   
     2     1    24 1   
     3     1    28 1   
     4     2     3 1   
     5     2    10 1   
     6     2    29 1   
     7     3     4 1   
     8     3    30 1   
     9     3    31 1   
    10     4     5 ar  
    11     4     9 ar  
    12     5     6 ar  
    13     5    25 1   
    14     6     7 ar  
    15     6    32 1   
    16     7     8 ar  
    17     7    33 1   
    18     8     9 ar  
    19     8    34 1   
    20     9    10 1   
    21    10    20 1   
    22    10    35 1   
    23    11    19 ar  
    24    11    21 ar  
    25    11    48 1   
    26    12    13 ar  
    27    12    21 ar  
    28    12    36 1   
    29    13    22 1   
    30    13    23 ar  
    31    14    15 1   
    32    14    18 1   
    33    14    22 1   
    34    14    37 1   
    35    15    16 1   
    36    15    49 1   
    37    15    50 1   
    38    16    26 1   
    39    16    38 1   
    40    16    39 1   
    41    17    18 1   
    42    17    26 1   
    43    17    40 1   
    44    17    41 1   
    45    18    42 1   
    46    18    43 1   
    47    19    23 ar  
    48    19    44 1   
    49    20    45 1   
    50    20    48 1   
    51    22    46 1   
    52    25    47 1   
    53    27    48 2   
@<TRIPOS>SUBSTRUCTURE
     1 QP9         1 TEMP              0 ****  ****    0 ROOT
