@<TRIPOS>MOLECULE
QP9
   50    53     1     0     0
SMALL
abcg2


@<TRIPOS>ATOM
      1 C02        -43.8800   -30.1410     3.1290 c          1 QP9       0.714000
      2 C03        -44.5170   -29.8590     1.7480 c5         1 QP9      -0.206700
      3 C04        -43.7240   -30.6260     0.6500 c5         1 QP9      -0.004100
      4 C05        -44.5510   -31.8610     0.4120 ca         1 QP9      -0.079300
      5 C06        -44.1980   -33.0320    -0.2500 ca         1 QP9       0.126100
      6 C08        -45.1280   -34.0680    -0.3530 ca         1 QP9      -0.211000
      7 C09        -46.3990   -33.9250     0.2000 ca         1 QP9      -0.096000
      8 C10        -46.7630   -32.7510     0.8580 ca         1 QP9      -0.120000
      9 C11        -45.8240   -31.7340     0.9530 ca         1 QP9      -0.038300
     10 C12        -45.9770   -30.3670     1.5860 c5         1 QP9       0.167000
     11 C15        -48.4970   -29.8320     4.3390 ca         1 QP9       0.184500
     12 C17        -48.2640   -30.4600     6.5210 ca         1 QP9       0.227900
     13 C18        -49.5240   -29.8690     6.8330 ca         1 QP9       0.568900
     14 C20        -51.2820   -29.3910     8.5210 c6         1 QP9       0.246500
     15 C21        -52.3950   -30.4210     8.2930 c6         1 QP9      -0.128900
     16 C22        -53.7120   -29.9080     8.8580 c6         1 QP9       0.156100
     17 C24        -52.6220   -28.5690    10.4690 c6         1 QP9       0.156100
     18 C25        -51.2380   -28.9960     9.9960 c6         1 QP9      -0.128900
     19 C27        -49.7260   -29.2690     4.6410 ca         1 QP9       0.378900
     20 N13        -46.7430   -30.3540     2.8090 ns         1 QP9      -0.447900
     21 N16        -47.7750   -30.4350     5.3090 nb         1 QP9      -0.560000
     22 N19        -49.9790   -29.8830     8.1020 nu         1 QP9      -0.938100
     23 N26        -50.2480   -29.2840     5.8690 nb         1 QP9      -0.747000
     24 O01        -42.9810   -29.3430     3.4930 o          1 QP9      -0.728500
     25 O07        -42.9360   -33.1210    -0.7710 oh         1 QP9      -0.540100
     26 O23        -53.5980   -29.5860    10.2450 os         1 QP9      -0.465000
     27 O28        -48.5710   -29.2310     2.0350 o          1 QP9      -0.667100
     28 O29        -44.2710   -31.1540     3.7700 o          1 QP9      -0.728500
     29 H031       -44.4690   -28.7850     1.5790 hc         1 QP9       0.054700
     30 H042       -43.6530   -30.0280    -0.2640 hc         1 QP9       0.049700
     31 H041       -42.7020   -30.8510     0.9590 hc         1 QP9       0.049700
     32 H081       -44.8500   -34.9860    -0.8600 ha         1 QP9       0.092000
     33 H091       -47.1060   -34.7400     0.1140 ha         1 QP9       0.093000
     34 H101       -47.7490   -32.6410     1.2920 ha         1 QP9       0.115000
     35 H121       -46.5030   -29.7130     0.8860 h1         1 QP9       0.061700
     36 H171       -47.6860   -30.9450     7.3020 h4         1 QP9       0.027100
     37 H201       -51.5000   -28.5050     7.9220 h1         1 QP9       0.080700
     38 H222       -54.0390   -29.0170     8.3040 h1         1 QP9       0.045450
     39 H221       -54.4930   -30.6640     8.7820 h1         1 QP9       0.045450
     40 H241       -52.9280   -27.6510     9.9490 h1         1 QP9       0.045450
     41 H242       -52.6230   -28.3730    11.5410 h1         1 QP9       0.045450
     42 H252       -50.5310   -28.1780    10.1490 hc         1 QP9       0.057700
     43 H251       -50.8990   -29.8490    10.5920 hc         1 QP9       0.057700
     44 H271       -50.3090   -28.7920     3.8640 h4         1 QP9       0.043100
     45 H131       -46.2880   -30.7620     3.6180 hn         1 QP9       0.384500
     46 H191       -49.4440   -30.4080     8.7770 hn         1 QP9       0.489000
     47 H071       -42.8070   -33.9910    -1.1720 ho         1 QP9       0.443000
     48 C14        -47.9450   -29.7770     2.9540 c          1 QP9       0.511600
     49 H211       -52.5050   -30.6280     7.2270 hc         1 QP9       0.057700
     50 H212       -52.1230   -31.3560     8.7920 hc         1 QP9       0.057700
@<TRIPOS>BOND
     1     1     2 1   
     2     1    24 1   
     3     1    28 1   
     4     2     3 1   
     5     2    10 1   
     6     2    29 1   
     7     3     4 1   
     8     3    30 1   
     9     3    31 1   
    10     4     5 ar  
    11     4     9 ar  
    12     5     6 ar  
    13     5    25 1   
    14     6     7 ar  
    15     6    32 1   
    16     7     8 ar  
    17     7    33 1   
    18     8     9 ar  
    19     8    34 1   
    20     9    10 1   
    21    10    20 1   
    22    10    35 1   
    23    11    19 ar  
    24    11    21 ar  
    25    11    48 1   
    26    12    13 ar  
    27    12    21 ar  
    28    12    36 1   
    29    13    22 1   
    30    13    23 ar  
    31    14    15 1   
    32    14    18 1   
    33    14    22 1   
    34    14    37 1   
    35    15    16 1   
    36    15    49 1   
    37    15    50 1   
    38    16    26 1   
    39    16    38 1   
    40    16    39 1   
    41    17    18 1   
    42    17    26 1   
    43    17    40 1   
    44    17    41 1   
    45    18    42 1   
    46    18    43 1   
    47    19    23 ar  
    48    19    44 1   
    49    20    45 1   
    50    20    48 1   
    51    22    46 1   
    52    25    47 1   
    53    27    48 2   
@<TRIPOS>SUBSTRUCTURE
     1 QP9         1 TEMP              0 ****  ****    0 ROOT
