@<TRIPOS>MOLECULE
QPA
   25    24     1     0     0
SMALL
No Charge or Current Charge


@<TRIPOS>ATOM
      1 C          -73.7100    -3.3000   120.9460 c          1 QPA       0.716000
      2 N          -73.9530    -5.3120   119.2630 n8         1 QPA      -1.013200
      3 O          -73.9850    -3.7270   122.0620 o          1 QPA      -0.776500
      4 C8         -77.3100    -2.0140   118.0650 c3         1 QPA       0.392000
      5 C9         -77.8450    -0.5570   117.9170 c3         1 QPA      -0.090100
      6 CA         -74.4230    -3.9290   119.6770 c3         1 QPA       0.036500
      7 CB         -75.9700    -3.8810   119.8350 c3         1 QPA       0.147600
      8 SG         -76.6260    -2.1360   119.8180 ss         1 QPA      -0.661000
      9 C10        -76.1980    -2.3550   116.9300 c          1 QPA       0.739000
     10 O10        -75.4690    -1.4520   116.5180 o          1 QPA      -0.773000
     11 O11        -80.6060    -1.9390   117.3370 o          1 QPA      -0.944833
     12 O12        -80.2630    -4.3160   117.0870 o          1 QPA      -0.944833
     13 O13        -79.0680    -2.7790   115.6490 o          1 QPA      -0.944833
     14 O14        -78.4050    -2.9640   118.1140 os         1 QPA      -0.574400
     15 OXT        -72.8070    -2.4920   120.7610 o          1 QPA      -0.776500
     16 HN         -74.3630    -5.5440   118.3500 hn         1 QPA       0.365000
     17 HNA        -72.9430    -5.2790   119.0780 hn         1 QPA       0.365000
     18 H9         -78.6600    -0.3590   118.6230 hc         1 QPA       0.013033
     19 H9A        -77.0470     0.1640   118.1280 hc         1 QPA       0.013033
     20 H9B        -78.1990    -0.3610   116.9000 hc         1 QPA       0.013033
     21 HA         -74.1730    -3.2680   118.8350 h1         1 QPA       0.039700
     22 HB         -76.4430    -4.4490   119.0240 h1         1 QPA       0.060700
     23 HBA        -76.2550    -4.3630   120.7790 h1         1 QPA       0.060700
     24 O9         -76.0530    -3.5090   116.5240 o          1 QPA      -0.773000
     25 P2         -79.5940    -2.9870   117.0260 p5         1 QPA       1.309900
@<TRIPOS>BOND
     1     1     3 1   
     2     1     6 1   
     3     1    15 1   
     4     2     6 1   
     5     2    16 1   
     6     2    17 1   
     7     4     5 1   
     8     4     8 1   
     9     4     9 1   
    10     4    14 1   
    11     5    18 1   
    12     5    19 1   
    13     5    20 1   
    14     6     7 1   
    15     6    21 1   
    16     7     8 1   
    17     7    22 1   
    18     7    23 1   
    19     9    10 1   
    20     9    24 1   
    21    11    25 1   
    22    12    25 1   
    23    13    25 1   
    24    14    25 1   
@<TRIPOS>SUBSTRUCTURE
     1 QPA         1 TEMP              0 ****  ****    0 ROOT
