@<TRIPOS>MOLECULE
QPA
   25    24     1     0     0
SMALL
bcc


@<TRIPOS>ATOM
      1 C          -73.6570    -3.4480   120.9660 c          1 QPA       0.926600
      2 N          -73.9900    -5.3020   119.3890 n8         1 QPA      -0.902800
      3 O          -74.3030    -2.6810   121.7060 o          1 QPA      -0.881800
      4 C8         -77.3820    -1.9880   117.9910 c3         1 QPA       0.320900
      5 C9         -77.9110    -0.5540   117.9720 c3         1 QPA      -0.090100
      6 CA         -74.3350    -3.9090   119.6530 c3         1 QPA       0.036500
      7 CB         -75.8500    -3.7710   119.6750 c3         1 QPA       0.099700
      8 SG         -76.4170    -2.0490   119.5910 ss         1 QPA      -0.565200
      9 C10        -76.3440    -2.2570   116.8630 c          1 QPA       0.949600
     10 O10        -75.7620    -1.2590   116.3870 o          1 QPA      -0.878300
     11 O11        -80.8260    -2.2970   117.6380 o          1 QPA      -0.944833
     12 O12        -79.8950    -4.5740   116.9190 o          1 QPA      -0.944833
     13 O13        -79.2120    -2.4420   115.6460 o          1 QPA      -0.944833
     14 O14        -78.3770    -2.9420   118.0650 os         1 QPA      -0.551200
     15 OXT        -72.4960    -3.8670   121.1580 o          1 QPA      -0.881800
     16 HN         -74.1320    -5.5030   118.4070 hn         1 QPA       0.309800
     17 HNA        -73.0020    -5.4180   119.5700 hn         1 QPA       0.309800
     18 H9         -78.6330    -0.4020   118.7770 hc         1 QPA       0.013033
     19 H9A        -77.1150     0.1780   118.0900 hc         1 QPA       0.013033
     20 H9B        -78.4130    -0.3580   117.0260 hc         1 QPA       0.013033
     21 HA         -73.9580    -3.2370   118.8620 h1         1 QPA       0.039700
     22 HB         -76.2760    -4.2780   118.8110 h1         1 QPA       0.060700
     23 HBA        -76.2610    -4.2400   120.5710 h1         1 QPA       0.060700
     24 O9         -76.1270    -3.4470   116.5580 o          1 QPA      -0.878300
     25 P2         -79.6940    -3.0630   116.9550 p5         1 QPA       1.309900
@<TRIPOS>BOND
     1     1     3 1   
     2     1     6 1   
     3     1    15 1   
     4     2     6 1   
     5     2    16 1   
     6     2    17 1   
     7     4     5 1   
     8     4     8 1   
     9     4     9 1   
    10     4    14 1   
    11     5    18 1   
    12     5    19 1   
    13     5    20 1   
    14     6     7 1   
    15     6    21 1   
    16     7     8 1   
    17     7    22 1   
    18     7    23 1   
    19     9    10 1   
    20     9    24 1   
    21    11    25 1   
    22    12    25 1   
    23    13    25 1   
    24    14    25 1   
@<TRIPOS>SUBSTRUCTURE
     1 QPA         1 TEMP              0 ****  ****    0 ROOT
