@<TRIPOS>MOLECULE
QPB
   26    26     1     0     0
SMALL
No Charge or Current Charge


@<TRIPOS>ATOM
      1 CAN        -37.7070    12.4200    11.5710 c3         1 QPB       0.150900
      2 OAM        -37.0980    13.7170    11.7040 os         1 QPB      -0.427100
      3 CAK        -36.6250    14.0920    12.9340 c          1 QPB       0.592300
      4 OAL        -36.6270    13.3460    13.9060 o          1 QPB      -0.490000
      5 CAI        -35.9470    15.4450    12.9270 ce         1 QPB      -0.156400
      6 CAJ        -35.0670    15.7160    14.1450 c3         1 QPB      -0.044900
      7 CAH        -36.0250    16.3840    11.9260 cf         1 QPB      -0.092200
      8 CAD        -36.8390    16.4610    10.6970 ca         1 QPB      -0.098800
      9 CAC        -38.2160    16.1590    10.7080 ca         1 QPB      -0.050500
     10 CAA        -38.9820    16.2780     9.5340 ca         1 QPB      -0.179000
     11 CAB        -38.3780    16.7150     8.3450 ca         1 QPB       0.147100
     12 OAG        -39.1120    16.8340     7.2040 oh         1 QPB      -0.532100
     13 CAF        -37.0150    17.0420     8.3310 ca         1 QPB      -0.179000
     14 CAE        -36.2490    16.9240     9.5040 ca         1 QPB      -0.050500
     15 H1         -38.0440    12.2620    10.5390 h1         1 QPB       0.047367
     16 H2         -36.9940    11.6240    11.8220 h1         1 QPB       0.047367
     17 H3         -38.5790    12.3280    12.2310 h1         1 QPB       0.047367
     18 H4         -34.4000    14.8710    14.3530 hc         1 QPB       0.050033
     19 H5         -34.4300    16.5990    14.0130 hc         1 QPB       0.050033
     20 H6         -35.6770    15.8850    15.0410 hc         1 QPB       0.050033
     21 H7         -35.4130    17.2780    12.0560 ha         1 QPB       0.178000
     22 H8         -38.6970    15.8400    11.6300 ha         1 QPB       0.115000
     23 H9         -40.0410    16.0340     9.5590 ha         1 QPB       0.122000
     24 H10        -40.0350    16.5670     7.4000 ho         1 QPB       0.466000
     25 H11        -36.5490    17.3900     7.4130 ha         1 QPB       0.122000
     26 H12        -35.1920    17.1840     9.4850 ha         1 QPB       0.115000
@<TRIPOS>BOND
     1     1     2 1   
     2     1    15 1   
     3     1    16 1   
     4     1    17 1   
     5     2     3 1   
     6     3     4 2   
     7     3     5 1   
     8     5     6 1   
     9     5     7 2   
    10     6    18 1   
    11     6    19 1   
    12     6    20 1   
    13     7     8 1   
    14     7    21 1   
    15     8     9 ar  
    16     8    14 ar  
    17     9    10 ar  
    18     9    22 1   
    19    10    11 ar  
    20    10    23 1   
    21    11    12 1   
    22    11    13 ar  
    23    12    24 1   
    24    13    14 ar  
    25    13    25 1   
    26    14    26 1   
@<TRIPOS>SUBSTRUCTURE
     1 QPB         1 TEMP              0 ****  ****    0 ROOT
