@<TRIPOS>MOLECULE
QPB
   26    26     1     0     0
SMALL
abcg2


@<TRIPOS>ATOM
      1 CAN        -37.5560    12.4740    11.5090 c3         1 QPB       0.150900
      2 OAM        -36.7510    13.6420    11.6570 os         1 QPB      -0.427100
      3 CAK        -36.7320    14.2240    12.8470 c          1 QPB       0.592300
      4 OAL        -37.2750    13.7670    13.8240 o          1 QPB      -0.490000
      5 CAI        -35.9150    15.4680    12.8730 ce         1 QPB      -0.156400
      6 CAJ        -35.0590    15.6230    14.0950 c3         1 QPB      -0.044900
      7 CAH        -35.9520    16.4000    11.9110 cf         1 QPB      -0.092200
      8 CAD        -36.8240    16.4710    10.7350 ca         1 QPB      -0.098800
      9 CAC        -38.1820    16.1570    10.7830 ca         1 QPB      -0.050500
     10 CAA        -38.9810    16.2410     9.6560 ca         1 QPB      -0.179000
     11 CAB        -38.4370    16.6500     8.4400 ca         1 QPB       0.147100
     12 OAG        -39.1610    16.7450     7.3090 oh         1 QPB      -0.532100
     13 CAF        -37.0880    16.9970     8.3800 ca         1 QPB      -0.179000
     14 CAE        -36.3050    16.9180     9.5180 ca         1 QPB      -0.050500
     15 H1         -37.4520    12.1690    10.4720 h1         1 QPB       0.047367
     16 H2         -37.2160    11.6680    12.1590 h1         1 QPB       0.047367
     17 H3         -38.6050    12.6840    11.7200 h1         1 QPB       0.047367
     18 H4         -34.4020    14.7640    14.2410 hc         1 QPB       0.050033
     19 H5         -34.4390    16.5150    14.0220 hc         1 QPB       0.050033
     20 H6         -35.6710    15.7120    14.9940 hc         1 QPB       0.050033
     21 H7         -35.2630    17.2330    12.0220 ha         1 QPB       0.178000
     22 H8         -38.6430    15.8680    11.7200 ha         1 QPB       0.115000
     23 H9         -40.0360    15.9970     9.7270 ha         1 QPB       0.122000
     24 H10        -40.0750    16.4800     7.4660 ho         1 QPB       0.466000
     25 H11        -36.6590    17.3330     7.4440 ha         1 QPB       0.122000
     26 H12        -35.2600    17.1970     9.4550 ha         1 QPB       0.115000
@<TRIPOS>BOND
     1     1     2 1   
     2     1    15 1   
     3     1    16 1   
     4     1    17 1   
     5     2     3 1   
     6     3     4 2   
     7     3     5 1   
     8     5     6 1   
     9     5     7 2   
    10     6    18 1   
    11     6    19 1   
    12     6    20 1   
    13     7     8 1   
    14     7    21 1   
    15     8     9 ar  
    16     8    14 ar  
    17     9    10 ar  
    18     9    22 1   
    19    10    11 ar  
    20    10    23 1   
    21    11    12 1   
    22    11    13 ar  
    23    12    24 1   
    24    13    14 ar  
    25    13    25 1   
    26    14    26 1   
@<TRIPOS>SUBSTRUCTURE
     1 QPB         1 TEMP              0 ****  ****    0 ROOT
