@<TRIPOS>MOLECULE
QPC
   58    60     1     0     0
SMALL
abcg2


@<TRIPOS>ATOM
      1 C1           5.2960     0.2780    -0.6080 ca         1 QPC       0.173900
      2 N1           5.0460    -1.0150    -0.4710 nb         1 QPC      -0.230000
      3 C2           3.7950    -1.3350    -0.1490 cp         1 QPC       0.267500
      4 N2           2.8200    -0.4710     0.0660 nb         1 QPC      -0.272000
      5 C3           3.0640     0.8310    -0.0510 ca         1 QPC       0.441900
      6 C4           4.3620     1.2840    -0.4330 ca         1 QPC      -0.352600
      7 C5           3.4690    -2.7700    -0.0190 cp         1 QPC      -0.167500
      8 C6           4.4690    -3.7360    -0.1450 ca         1 QPC      -0.059000
      9 C7           4.1630    -5.0820    -0.0210 ca         1 QPC      -0.129500
     10 C8           2.8560    -5.4820     0.2280 ca         1 QPC      -0.086000
     11 C9           1.8550    -4.5260     0.3520 ca         1 QPC      -0.129500
     12 C10          2.1580    -3.1800     0.2300 ca         1 QPC      -0.059000
     13 N3           2.0710     1.7050     0.1850 nu         1 QPC      -0.926900
     14 C11          0.7380     1.4770     0.5420 ca         1 QPC       0.306000
     15 C12         -0.1730     2.4840     0.2210 ca         1 QPC      -0.135000
     16 C13         -1.5080     2.3680     0.5670 ca         1 QPC      -0.075000
     17 C14         -1.9790     1.2460     1.2420 ca         1 QPC      -0.099300
     18 C15         -1.0640     0.2520     1.5680 ca         1 QPC      -0.075000
     19 C16          0.2790     0.3570     1.2370 ca         1 QPC      -0.135000
     20 C17         -3.4380     1.1020     1.5690 c3         1 QPC      -0.109100
     21 C18         -4.1530     0.3010     0.4910 c          1 QPC       0.602100
     22 N4          -5.1680     0.9400    -0.1130 ns         1 QPC      -0.503900
     23 O1          -3.7990    -0.8350     0.2100 o          1 QPC      -0.600100
     24 C19          4.6780     2.7220    -0.6210 c          1 QPC       0.648700
     25 O2           3.8310     3.5930    -0.4060 o          1 QPC      -0.650100
     26 N5           5.9090     3.0450    -1.0290 nt         1 QPC      -0.592000
     27 C20         -5.9970     0.3720    -1.1500 c3         1 QPC       0.105000
     28 C21         -7.4070    -0.0290    -0.6880 c3         1 QPC      -0.069000
     29 C22         -7.3320    -1.1030     0.3960 c3         1 QPC      -0.083100
     30 C23         -8.1500     1.1940    -0.1480 c3         1 QPC      -0.083100
     31 C24         -8.1410    -0.5850    -1.9080 c3         1 QPC      -0.083100
     32 H1           6.3210     0.5110    -0.8750 h4         1 QPC       0.009100
     33 H2           5.4870    -3.4290    -0.3390 ha         1 QPC       0.135500
     34 H3           4.9470    -5.8220    -0.1180 ha         1 QPC       0.116000
     35 H4           2.6190    -6.5330     0.3240 ha         1 QPC       0.113000
     36 H5           0.8340    -4.8310     0.5440 ha         1 QPC       0.116000
     37 H6           1.3740    -2.4410     0.3200 ha         1 QPC       0.135500
     38 H7           2.3430     2.6700     0.0110 hn         1 QPC       0.548000
     39 H8           0.1650     3.3670    -0.3080 ha         1 QPC       0.130000
     40 H9          -2.1910     3.1670     0.3030 ha         1 QPC       0.115000
     41 H10         -1.3970    -0.6260     2.1080 ha         1 QPC       0.115000
     42 H11          0.9590    -0.4290     1.5240 ha         1 QPC       0.130000
     43 H12         -3.5630     0.5600     2.5090 hc         1 QPC       0.062200
     44 H13         -3.8940     2.0840     1.7060 hc         1 QPC       0.062200
     45 H14         -5.3690     1.8830     0.1750 hn         1 QPC       0.307500
     46 H15          6.6230     2.3770    -1.2580 hn         1 QPC       0.319000
     47 H16          6.1430     4.0160    -1.1570 hn         1 QPC       0.319000
     48 H17         -6.0810     1.1050    -1.9580 h1         1 QPC       0.056700
     49 H18         -5.4810    -0.4980    -1.5590 h1         1 QPC       0.056700
     50 H19         -8.3340    -1.4150     0.6950 hc         1 QPC       0.034811
     51 H20         -6.7990    -1.9880     0.0440 hc         1 QPC       0.034811
     52 H21         -6.8240    -0.7400     1.2910 hc         1 QPC       0.034811
     53 H22         -8.1950     1.9960    -0.8880 hc         1 QPC       0.034811
     54 H23         -9.1760     0.9350     0.1200 hc         1 QPC       0.034811
     55 H24         -7.6730     1.5910     0.7500 hc         1 QPC       0.034811
     56 H25         -8.2050     0.1540    -2.7100 hc         1 QPC       0.034811
     57 H26         -7.6320    -1.4660    -2.3050 hc         1 QPC       0.034811
     58 H27         -9.1600    -0.8800    -1.6490 hc         1 QPC       0.034811
@<TRIPOS>BOND
     1     1     2 ar  
     2     1     6 ar  
     3     1    32 1   
     4     2     3 ar  
     5     3     4 ar  
     6     3     7 1   
     7     4     5 ar  
     8     5     6 ar  
     9     5    13 1   
    10     6    24 1   
    11     7     8 ar  
    12     7    12 ar  
    13     8     9 ar  
    14     8    33 1   
    15     9    10 ar  
    16     9    34 1   
    17    10    11 ar  
    18    10    35 1   
    19    11    12 ar  
    20    11    36 1   
    21    12    37 1   
    22    13    14 1   
    23    13    38 1   
    24    14    15 ar  
    25    14    19 ar  
    26    15    16 ar  
    27    15    39 1   
    28    16    17 ar  
    29    16    40 1   
    30    17    18 ar  
    31    17    20 1   
    32    18    19 ar  
    33    18    41 1   
    34    19    42 1   
    35    20    21 1   
    36    20    43 1   
    37    20    44 1   
    38    21    22 1   
    39    21    23 2   
    40    22    27 1   
    41    22    45 1   
    42    24    25 2   
    43    24    26 1   
    44    26    46 1   
    45    26    47 1   
    46    27    28 1   
    47    27    48 1   
    48    27    49 1   
    49    28    29 1   
    50    28    30 1   
    51    28    31 1   
    52    29    50 1   
    53    29    51 1   
    54    29    52 1   
    55    30    53 1   
    56    30    54 1   
    57    30    55 1   
    58    31    56 1   
    59    31    57 1   
    60    31    58 1   
@<TRIPOS>SUBSTRUCTURE
     1 QPC         1 TEMP              0 ****  ****    0 ROOT
