@<TRIPOS>MOLECULE
QPC
   58    60     1     0     0
SMALL
No Charge or Current Charge


@<TRIPOS>ATOM
      1 C1           5.3310     0.3970    -0.6810 ca         1 QPC       0.173900
      2 N1           5.1480    -0.9280    -0.5500 nb         1 QPC      -0.230000
      3 C2           3.9170    -1.3640    -0.2150 cp         1 QPC       0.267500
      4 N2           2.8640    -0.5550     0.0030 nb         1 QPC      -0.272000
      5 C3           3.0430     0.7690    -0.1110 ca         1 QPC       0.441900
      6 C4           4.2850     1.3180    -0.4750 ca         1 QPC      -0.352600
      7 C5           3.7050    -2.8520    -0.0750 cp         1 QPC      -0.167500
      8 C6           4.7740    -3.7750    -0.2540 ca         1 QPC      -0.059000
      9 C7           4.5740    -5.1600    -0.1230 ca         1 QPC      -0.129500
     10 C8           3.3030    -5.6640     0.1900 ca         1 QPC      -0.086000
     11 C9           2.2310    -4.7790     0.3710 ca         1 QPC      -0.129500
     12 C10          2.4260    -3.3930     0.2410 ca         1 QPC      -0.059000
     13 N3           1.9410     1.5810     0.1110 nu         1 QPC      -0.926900
     14 C11          0.6200     1.3870     0.5270 ca         1 QPC       0.306000
     15 C12         -0.3450     2.3310     0.1380 ca         1 QPC      -0.135000
     16 C13         -1.6870     2.1910     0.5360 ca         1 QPC      -0.075000
     17 C14         -2.0770     1.1060     1.3430 ca         1 QPC      -0.099300
     18 C15         -1.1100     0.1680     1.7490 ca         1 QPC      -0.075000
     19 C16          0.2300     0.3110     1.3470 ca         1 QPC      -0.135000
     20 C17         -3.5320     0.9490     1.7740 c3         1 QPC      -0.109100
     21 C18         -4.3150     0.1050     0.7600 c          1 QPC       0.602100
     22 N4          -5.1070     0.8260    -0.1080 ns         1 QPC      -0.503900
     23 O1          -4.2320    -1.1140     0.7160 o          1 QPC      -0.600100
     24 C19          4.5050     2.7900    -0.6520 c          1 QPC       0.648700
     25 O2           3.6090     3.6150    -0.5770 o          1 QPC      -0.650100
     26 N5           5.7530     3.2110    -0.9230 nt         1 QPC      -0.592000
     27 C20         -5.9720     0.2450    -1.1430 c3         1 QPC       0.105000
     28 C21         -7.4740     0.1570    -0.7370 c3         1 QPC      -0.069000
     29 C22         -7.6580    -0.7580     0.5040 c3         1 QPC      -0.083100
     30 C23         -8.0320     1.5710    -0.4190 c3         1 QPC      -0.083100
     31 C24         -8.2710    -0.4430    -1.9250 c3         1 QPC      -0.083100
     32 H1           6.3340     0.7080    -0.9650 h4         1 QPC       0.009100
     33 H2           5.7750    -3.4230    -0.4970 ha         1 QPC       0.135500
     34 H3           5.4080    -5.8440    -0.2650 ha         1 QPC       0.116000
     35 H4           3.1500    -6.7370     0.2910 ha         1 QPC       0.113000
     36 H5           1.2430    -5.1660     0.6140 ha         1 QPC       0.116000
     37 H6           1.5690    -2.7390     0.3880 ha         1 QPC       0.135500
     38 H7           2.1640     2.5510    -0.1450 hn         1 QPC       0.548000
     39 H8          -0.0600     3.1730    -0.4860 ha         1 QPC       0.130000
     40 H9          -2.4200     2.9280     0.2150 ha         1 QPC       0.115000
     41 H10         -1.3940    -0.6710     2.3800 ha         1 QPC       0.115000
     42 H11          0.9590    -0.4110     1.6980 ha         1 QPC       0.130000
     43 H12         -3.5740     0.4510     2.7490 hc         1 QPC       0.062200
     44 H13         -3.9890     1.9420     1.8580 hc         1 QPC       0.062200
     45 H14         -5.1010     1.8330     0.0010 hn         1 QPC       0.307500
     46 H15          6.5100     2.5490    -0.9910 hn         1 QPC       0.319000
     47 H16          5.9190     4.1980    -1.0500 hn         1 QPC       0.319000
     48 H17         -5.8790     0.8640    -2.0450 h1         1 QPC       0.056700
     49 H18         -5.6040    -0.7570    -1.4020 h1         1 QPC       0.056700
     50 H19         -8.7210    -0.8750     0.7500 hc         1 QPC       0.034811
     51 H20         -7.2430    -1.7570     0.3180 hc         1 QPC       0.034811
     52 H21         -7.1570    -0.3410     1.3850 hc         1 QPC       0.034811
     53 H22         -7.8960     2.2460    -1.2730 hc         1 QPC       0.034811
     54 H23         -9.1040     1.5270    -0.1910 hc         1 QPC       0.034811
     55 H24         -7.5260     2.0140     0.4470 hc         1 QPC       0.034811
     56 H25         -8.1720     0.1840    -2.8200 hc         1 QPC       0.034811
     57 H26         -7.9070    -1.4470    -2.1740 hc         1 QPC       0.034811
     58 H27         -9.3390    -0.5200    -1.6840 hc         1 QPC       0.034811
@<TRIPOS>BOND
     1     1     2 ar  
     2     1     6 ar  
     3     1    32 1   
     4     2     3 ar  
     5     3     4 ar  
     6     3     7 1   
     7     4     5 ar  
     8     5     6 ar  
     9     5    13 1   
    10     6    24 1   
    11     7     8 ar  
    12     7    12 ar  
    13     8     9 ar  
    14     8    33 1   
    15     9    10 ar  
    16     9    34 1   
    17    10    11 ar  
    18    10    35 1   
    19    11    12 ar  
    20    11    36 1   
    21    12    37 1   
    22    13    14 1   
    23    13    38 1   
    24    14    15 ar  
    25    14    19 ar  
    26    15    16 ar  
    27    15    39 1   
    28    16    17 ar  
    29    16    40 1   
    30    17    18 ar  
    31    17    20 1   
    32    18    19 ar  
    33    18    41 1   
    34    19    42 1   
    35    20    21 1   
    36    20    43 1   
    37    20    44 1   
    38    21    22 1   
    39    21    23 2   
    40    22    27 1   
    41    22    45 1   
    42    24    25 2   
    43    24    26 1   
    44    26    46 1   
    45    26    47 1   
    46    27    28 1   
    47    27    48 1   
    48    27    49 1   
    49    28    29 1   
    50    28    30 1   
    51    28    31 1   
    52    29    50 1   
    53    29    51 1   
    54    29    52 1   
    55    30    53 1   
    56    30    54 1   
    57    30    55 1   
    58    31    56 1   
    59    31    57 1   
    60    31    58 1   
@<TRIPOS>SUBSTRUCTURE
     1 QPC         1 TEMP              0 ****  ****    0 ROOT
