@<TRIPOS>MOLECULE
QPD
   39    41     1     0     0
SMALL
No Charge or Current Charge


@<TRIPOS>ATOM
      1 C5           9.2700     1.3720    -4.4290 ca         1 QPD      -0.136000
      2 O2           8.6530     5.4610   -11.9850 o          1 QPD      -0.597100
      3 C16         11.0480     2.0990   -14.9700 ca         1 QPD      -0.115500
      4 C14         10.7100     3.4740   -12.9780 ca         1 QPD      -0.104300
      5 C8          10.6330     3.4390    -8.3810 c          1 QPD       0.624300
      6 C4           9.6820     1.8240    -5.7000 ca         1 QPD      -0.050000
      7 N1          10.0120     5.3810    -5.2480 na         1 QPD      -0.219700
      8 C3          10.3240     3.9610    -7.0210 cc         1 QPD      -0.217400
      9 O1          10.5660     2.2570    -8.6900 o          1 QPD      -0.626100
     10 C2          10.3810     5.2980    -6.6120 cd         1 QPD      -0.112100
     11 C7           9.3240     3.6640    -3.5700 ca         1 QPD      -0.127000
     12 C12          8.8750     4.3890   -11.4380 c          1 QPD       0.611100
     13 C18         11.6830     4.4450   -15.0010 ca         1 QPD      -0.115500
     14 C6           9.0910     2.2880    -3.3670 ca         1 QPD      -0.091000
     15 C11         10.2320     3.6110   -11.5290 c3         1 QPD       0.114800
     16 C15         10.6130     2.2320   -13.6400 ca         1 QPD      -0.087500
     17 C17         11.5830     3.2050   -15.6510 ca         1 QPD      -0.100000
     18 C19         11.2490     4.5800   -13.6700 ca         1 QPD      -0.087500
     19 C4A          9.9060     3.2010    -5.8700 ca         1 QPD      -0.053800
     20 C7A          9.7330     4.0870    -4.8420 ca         1 QPD      -0.060200
     21 N9          11.0140     4.4230    -9.2930 ns         1 QPD      -0.403300
     22 N10         11.3160     4.2000   -10.6850 n7         1 QPD      -0.560400
     23 H5           9.0880     0.3120    -4.2660 ha         1 QPD       0.114000
     24 H16         10.9690     1.1370   -15.4730 ha         1 QPD       0.115000
     25 H4           9.8200     1.1220    -6.5180 ha         1 QPD       0.139000
     26 H12          9.9610     6.2210    -4.6790 hn         1 QPD       0.354000
     27 H2          10.6500     6.1920    -7.1690 h4         1 QPD       0.218000
     28 H7           9.1890     4.3770    -2.7590 ha         1 QPD       0.114000
     29 H18         12.0970     5.3030   -15.5260 ha         1 QPD       0.115000
     30 H6           8.7730     1.9310    -2.3900 ha         1 QPD       0.112000
     31 H11         10.0210     2.5960   -11.1680 h1         1 QPD       0.058700
     32 H15         10.2000     1.3670   -13.1250 ha         1 QPD       0.125500
     33 H17         11.9190     3.1000   -16.6810 ha         1 QPD       0.113000
     34 H19         11.3280     5.5470   -13.1770 ha         1 QPD       0.125500
     35 H9          11.0410     5.3650    -8.9100 hn         1 QPD       0.351500
     36 H10         12.1880     3.6600   -10.8140 hn         1 QPD       0.435000
     37 H9L          7.0110     4.2730   -10.5990 hn         1 QPD       0.315500
     38 H13          8.0790     2.9350   -10.2210 hn         1 QPD       0.315500
     39 N13          7.9010     3.8100   -10.6930 nt         1 QPD      -0.609000
@<TRIPOS>BOND
     1     1     6 ar  
     2     1    14 ar  
     3     1    23 1   
     4     2    12 2   
     5     3    16 ar  
     6     3    17 ar  
     7     3    24 1   
     8     4    15 1   
     9     4    16 ar  
    10     4    18 ar  
    11     5     8 1   
    12     5     9 2   
    13     5    21 1   
    14     6    19 ar  
    15     6    25 1   
    16     7    10 1   
    17     7    20 1   
    18     7    26 1   
    19     8    10 2   
    20     8    19 1   
    21    10    27 1   
    22    11    14 ar  
    23    11    20 ar  
    24    11    28 1   
    25    12    15 1   
    26    12    39 1   
    27    13    17 ar  
    28    13    18 ar  
    29    13    29 1   
    30    14    30 1   
    31    15    22 1   
    32    15    31 1   
    33    16    32 1   
    34    17    33 1   
    35    18    34 1   
    36    19    20 ar  
    37    21    22 1   
    38    21    35 1   
    39    22    36 1   
    40    37    39 1   
    41    38    39 1   
@<TRIPOS>SUBSTRUCTURE
     1 QPD         1 TEMP              0 ****  ****    0 ROOT
