@<TRIPOS>MOLECULE
QPD
   39    41     1     0     0
SMALL
abcg2


@<TRIPOS>ATOM
      1 C5          10.3570     1.2440    -4.3480 ca         1 QPD      -0.136000
      2 O2           9.4220     6.3270   -11.5430 o          1 QPD      -0.597100
      3 C16         10.7880     1.7870   -14.4760 ca         1 QPD      -0.115500
      4 C14         10.5670     3.5060   -12.7900 ca         1 QPD      -0.104300
      5 C8          10.5110     3.5650    -8.3840 c          1 QPD       0.624300
      6 C4          10.4830     1.7530    -5.6310 ca         1 QPD      -0.050000
      7 N1           9.2890     5.1010    -5.2900 na         1 QPD      -0.219700
      8 C3          10.0860     3.9380    -7.0330 cc         1 QPD      -0.217400
      9 O1          10.7020     2.3920    -8.7230 o          1 QPD      -0.626100
     10 C2           9.5820     5.1550    -6.6170 cd         1 QPD      -0.112100
     11 C7           9.4610     3.3410    -3.5050 ca         1 QPD      -0.127000
     12 C12          9.0630     5.1600   -11.6590 c          1 QPD       0.611100
     13 C18         11.8640     3.9180   -14.7870 ca         1 QPD      -0.115500
     14 C6           9.8510     2.0270    -3.2960 ca         1 QPD      -0.091000
     15 C11         10.0170     3.9700   -11.4590 c3         1 QPD       0.114800
     16 C15         10.2870     2.2220   -13.2520 ca         1 QPD      -0.087500
     17 C17         11.5780     2.6340   -15.2450 ca         1 QPD      -0.100000
     18 C19         11.3600     4.3530   -13.5670 ca         1 QPD      -0.087500
     19 C4A         10.0950     3.0780    -5.8730 ca         1 QPD      -0.053800
     20 C7A          9.5890     3.8480    -4.7960 ca         1 QPD      -0.060200
     21 N9          10.6930     4.5880    -9.2670 ns         1 QPD      -0.403300
     22 N10         11.1250     4.3630   -10.5800 n7         1 QPD      -0.560400
     23 H5          10.6510     0.2210    -4.1500 ha         1 QPD       0.114000
     24 H16         10.5640     0.7860   -14.8240 ha         1 QPD       0.115000
     25 H4          10.8710     1.1440    -6.4350 ha         1 QPD       0.139000
     26 H12          8.8940     5.8590    -4.7570 hn         1 QPD       0.354000
     27 H2           9.3930     6.0560    -7.1780 h4         1 QPD       0.218000
     28 H7           9.0730     3.9520    -2.7000 ha         1 QPD       0.114000
     29 H18         12.4780     4.5820   -15.3830 ha         1 QPD       0.115000
     30 H6           9.7650     1.5980    -2.3060 ha         1 QPD       0.112000
     31 H11          9.4400     3.1500   -11.0210 h1         1 QPD       0.058700
     32 H15          9.6750     1.5610   -12.6510 ha         1 QPD       0.125500
     33 H17         11.9710     2.2970   -16.1960 ha         1 QPD       0.113000
     34 H19         11.5800     5.3520   -13.2140 ha         1 QPD       0.125500
     35 H9          10.7290     5.5460    -8.9600 hn         1 QPD       0.351500
     36 H10         11.7990     3.6030   -10.5580 hn         1 QPD       0.435000
     37 H9L          7.1300     5.5160   -12.2110 hn         1 QPD       0.315500
     38 H13          7.5400     3.8400   -12.0800 hn         1 QPD       0.315500
     39 N13          7.8110     4.8060   -11.9940 nt         1 QPD      -0.609000
@<TRIPOS>BOND
     1     1     6 ar  
     2     1    14 ar  
     3     1    23 1   
     4     2    12 2   
     5     3    16 ar  
     6     3    17 ar  
     7     3    24 1   
     8     4    15 1   
     9     4    16 ar  
    10     4    18 ar  
    11     5     8 1   
    12     5     9 2   
    13     5    21 1   
    14     6    19 ar  
    15     6    25 1   
    16     7    10 1   
    17     7    20 1   
    18     7    26 1   
    19     8    10 2   
    20     8    19 1   
    21    10    27 1   
    22    11    14 ar  
    23    11    20 ar  
    24    11    28 1   
    25    12    15 1   
    26    12    39 1   
    27    13    17 ar  
    28    13    18 ar  
    29    13    29 1   
    30    14    30 1   
    31    15    22 1   
    32    15    31 1   
    33    16    32 1   
    34    17    33 1   
    35    18    34 1   
    36    19    20 ar  
    37    21    22 1   
    38    21    35 1   
    39    22    36 1   
    40    37    39 1   
    41    38    39 1   
@<TRIPOS>SUBSTRUCTURE
     1 QPD         1 TEMP              0 ****  ****    0 ROOT
