@<TRIPOS>MOLECULE
QPE
   25    25     1     0     0
SMALL
abcg2


@<TRIPOS>ATOM
      1 CAM        -18.7410    16.6940     0.5530 c3         1 QPE       0.150900
      2 OAL        -19.8540    15.9760     1.0810 os         1 QPE      -0.443100
      3 CAJ        -19.7750    15.5630     2.3400 c          1 QPE       0.591300
      4 OAK        -18.8190    15.7690     3.0450 o          1 QPE      -0.473000
      5 CAH        -21.0250    14.8690     2.7620 ce         1 QPE      -0.155400
      6 CAI        -22.3120    15.3540     2.1610 c3         1 QPE      -0.043900
      7 CAG        -21.0100    13.8900     3.6750 cf         1 QPE      -0.095200
      8 CAD        -19.8600    13.2240     4.3040 ca         1 QPE      -0.062800
      9 CAC        -18.7790    12.7440     3.5640 ca         1 QPE      -0.085500
     10 CAA        -17.7320    12.0860     4.1910 ca         1 QPE      -0.111000
     11 CAB        -17.7470    11.8940     5.5670 ca         1 QPE      -0.101000
     12 CAF        -18.8290    12.3480     6.3110 ca         1 QPE      -0.111000
     13 CAE        -19.8820    12.9960     5.6810 ca         1 QPE      -0.085500
     14 H1         -19.0120    16.9600    -0.4650 h1         1 QPE       0.047033
     15 H2         -18.5430    17.6010     1.1230 h1         1 QPE       0.047033
     16 H3         -17.8420    16.0780     0.5370 h1         1 QPE       0.047033
     17 H4         -23.1620    14.8790     2.6470 hc         1 QPE       0.047367
     18 H5         -22.4250    16.4350     2.2640 hc         1 QPE       0.047367
     19 H6         -22.3690    15.1260     1.0950 hc         1 QPE       0.047367
     20 H7         -21.9790    13.5140     3.9920 ha         1 QPE       0.179000
     21 H8         -18.7660    12.8630     2.4880 ha         1 QPE       0.111500
     22 H9         -16.9020    11.7160     3.6020 ha         1 QPE       0.113000
     23 H10        -16.9280    11.3820     6.0550 ha         1 QPE       0.112000
     24 H11        -18.8570    12.1920     7.3810 ha         1 QPE       0.113000
     25 H12        -20.7280    13.3380     6.2650 ha         1 QPE       0.111500
@<TRIPOS>BOND
     1     1     2 1   
     2     1    14 1   
     3     1    15 1   
     4     1    16 1   
     5     2     3 1   
     6     3     4 2   
     7     3     5 1   
     8     5     6 1   
     9     5     7 2   
    10     6    17 1   
    11     6    18 1   
    12     6    19 1   
    13     7     8 1   
    14     7    20 1   
    15     8     9 ar  
    16     8    13 ar  
    17     9    10 ar  
    18     9    21 1   
    19    10    11 ar  
    20    10    22 1   
    21    11    12 ar  
    22    11    23 1   
    23    12    13 ar  
    24    12    24 1   
    25    13    25 1   
@<TRIPOS>SUBSTRUCTURE
     1 QPE         1 TEMP              0 ****  ****    0 ROOT
