@<TRIPOS>MOLECULE
QPE
   25    25     1     0     0
SMALL
No Charge or Current Charge


@<TRIPOS>ATOM
      1 CAM        -18.8840    17.0150     0.4420 c3         1 QPE       0.150900
      2 OAL        -19.9710    16.2970     1.0560 os         1 QPE      -0.443100
      3 CAJ        -19.6880    15.4710     2.1170 c          1 QPE       0.591300
      4 OAK        -18.5630    15.3420     2.5790 o          1 QPE      -0.473000
      5 CAH        -20.9340    14.8130     2.6760 ce         1 QPE      -0.155400
      6 CAI        -22.2700    15.2930     2.1060 c3         1 QPE      -0.043900
      7 CAG        -20.9280    13.8770     3.6810 cf         1 QPE      -0.095200
      8 CAD        -19.8250    13.1850     4.3740 ca         1 QPE      -0.062800
      9 CAC        -18.7440    12.6240     3.6640 ca         1 QPE      -0.085500
     10 CAA        -17.7250    11.9350     4.3440 ca         1 QPE      -0.111000
     11 CAB        -17.7850    11.7880     5.7400 ca         1 QPE      -0.101000
     12 CAF        -18.8720    12.3220     6.4520 ca         1 QPE      -0.111000
     13 CAE        -19.8910    13.0090     5.7710 ca         1 QPE      -0.085500
     14 H1         -19.2540    17.6290    -0.3890 h1         1 QPE       0.047033
     15 H2         -18.3960    17.6800     1.1660 h1         1 QPE       0.047033
     16 H3         -18.1330    16.3210     0.0440 h1         1 QPE       0.047033
     17 H4         -23.1280    14.8700     2.6420 hc         1 QPE       0.047367
     18 H5         -22.3640    16.3840     2.1680 hc         1 QPE       0.047367
     19 H6         -22.3760    15.0070     1.0520 hc         1 QPE       0.047367
     20 H7         -21.9030    13.5380     4.0350 ha         1 QPE       0.179000
     21 H8         -18.6990    12.7090     2.5810 ha         1 QPE       0.111500
     22 H9         -16.8920    11.5110     3.7880 ha         1 QPE       0.113000
     23 H10        -16.9970    11.2540     6.2660 ha         1 QPE       0.112000
     24 H11        -18.9260    12.2000     7.5320 ha         1 QPE       0.113000
     25 H12        -20.7310    13.4150     6.3310 ha         1 QPE       0.111500
@<TRIPOS>BOND
     1     1     2 1   
     2     1    14 1   
     3     1    15 1   
     4     1    16 1   
     5     2     3 1   
     6     3     4 2   
     7     3     5 1   
     8     5     6 1   
     9     5     7 2   
    10     6    17 1   
    11     6    18 1   
    12     6    19 1   
    13     7     8 1   
    14     7    20 1   
    15     8     9 ar  
    16     8    13 ar  
    17     9    10 ar  
    18     9    21 1   
    19    10    11 ar  
    20    10    22 1   
    21    11    12 ar  
    22    11    23 1   
    23    12    13 ar  
    24    12    24 1   
    25    13    25 1   
@<TRIPOS>SUBSTRUCTURE
     1 QPE         1 TEMP              0 ****  ****    0 ROOT
