@<TRIPOS>MOLECULE
QPF
   30    32     1     0     0
SMALL
abcg2


@<TRIPOS>ATOM
      1 OAE         12.6080     8.2160   101.5980 o          1 QPF      -0.512100
      2 CAD         12.2710     8.8150   100.5860 c          1 QPF       0.582300
      3 CAC         11.2090     8.2910    99.7020 ca         1 QPF      -0.090600
      4 CAB         10.5650     7.1110   100.0460 ca         1 QPF      -0.110000
      5 CAA          9.5620     6.6050    99.2210 ca         1 QPF      -0.055000
      6 CAT          9.2100     7.2660    98.0600 ca         1 QPF      -0.147000
      7 CAR          9.8560     8.4550    97.6970 ca         1 QPF       0.209100
      8 OAS          9.4800     9.0500    96.5570 oh         1 QPF      -0.553100
      9 CAQ         10.8680     8.9880    98.5270 ca         1 QPF      -0.251600
     10 CAO         11.5340    10.2470    98.1500 c          1 QPF       0.622300
     11 OAP         11.2120    10.7990    97.0810 o          1 QPF      -0.561100
     12 CAN         12.5520    10.8060    99.0430 ca         1 QPF      -0.207600
     13 CAF         12.9210    10.1050   100.2130 ca         1 QPF      -0.046600
     14 CAG         13.8920    10.5810   101.0750 ca         1 QPF      -0.208000
     15 CAH         14.5270    11.7880   100.7940 ca         1 QPF       0.202100
     16 OAI         15.4840    12.3050   101.5950 oh         1 QPF      -0.527100
     17 CAJ         14.1870    12.5140    99.6610 ca         1 QPF      -0.249000
     18 CAK         13.2100    12.0430    98.7850 ca         1 QPF       0.238100
     19 OAL         12.8600    12.7370    97.6930 os         1 QPF      -0.313100
     20 CAM         13.4930    13.9930    97.4230 c3         1 QPF       0.146900
     21 H1          10.8500     6.5990   100.9530 ha         1 QPF       0.139000
     22 H2           9.0550     5.6870    99.4890 ha         1 QPF       0.123000
     23 H3           8.4340     6.8840    97.4090 ha         1 QPF       0.136000
     24 H4          10.0570     9.8620    96.4800 ho         1 QPF       0.522000
     25 H5          14.1480    10.0140   101.9600 ha         1 QPF       0.144000
     26 H6          15.6340    11.7260   102.3570 ho         1 QPF       0.476000
     27 H7          14.6960    13.4480    99.4800 ha         1 QPF       0.140000
     28 H8          13.0350    14.3530    96.5060 h1         1 QPF       0.050700
     29 H9          13.3100    14.7020    98.2320 h1         1 QPF       0.050700
     30 H10         14.5660    13.8640    97.2750 h1         1 QPF       0.050700
@<TRIPOS>BOND
     1     1     2 2   
     2     2     3 1   
     3     2    13 1   
     4     3     4 ar  
     5     3     9 ar  
     6     4     5 ar  
     7     4    21 1   
     8     5     6 ar  
     9     5    22 1   
    10     6     7 ar  
    11     6    23 1   
    12     7     8 1   
    13     7     9 ar  
    14     8    24 1   
    15     9    10 1   
    16    10    11 2   
    17    10    12 1   
    18    12    13 ar  
    19    12    18 ar  
    20    13    14 ar  
    21    14    15 ar  
    22    14    25 1   
    23    15    16 1   
    24    15    17 ar  
    25    16    26 1   
    26    17    18 ar  
    27    17    27 1   
    28    18    19 1   
    29    19    20 1   
    30    20    28 1   
    31    20    29 1   
    32    20    30 1   
@<TRIPOS>SUBSTRUCTURE
     1 QPF         1 TEMP              0 ****  ****    0 ROOT
