@<TRIPOS>MOLECULE
QPF
   30    32     1     0     0
SMALL
No Charge or Current Charge


@<TRIPOS>ATOM
      1 OAE         12.5760     8.1840   101.6410 o          1 QPF      -0.512100
      2 CAD         12.2580     8.8000   100.6270 c          1 QPF       0.582300
      3 CAC         11.1900     8.2690    99.7020 ca         1 QPF      -0.090600
      4 CAB         10.5520     7.0460   100.0170 ca         1 QPF      -0.110000
      5 CAA          9.5560     6.5180    99.1860 ca         1 QPF      -0.055000
      6 CAT          9.1840     7.2090    98.0270 ca         1 QPF      -0.147000
      7 CAR          9.8020     8.4220    97.6970 ca         1 QPF       0.209100
      8 OAS          9.3990     9.0480    96.5580 oh         1 QPF      -0.553100
      9 CAQ         10.8150     8.9730    98.5270 ca         1 QPF      -0.251600
     10 CAO         11.4870    10.2860    98.1740 c          1 QPF       0.622300
     11 OAP         11.1420    10.8690    97.1520 o          1 QPF      -0.561100
     12 CAN         12.5650    10.8350    99.0950 ca         1 QPF      -0.207600
     13 CAF         12.9240    10.1120   100.2670 ca         1 QPF      -0.046600
     14 CAG         13.9260    10.6240   101.1220 ca         1 QPF      -0.208000
     15 CAH         14.5680    11.8280   100.8330 ca         1 QPF       0.202100
     16 OAI         15.5320    12.3130   101.6620 oh         1 QPF      -0.527100
     17 CAJ         14.2260    12.5430    99.6900 ca         1 QPF      -0.249000
     18 CAK         13.2300    12.0630    98.8140 ca         1 QPF       0.238100
     19 OAL         12.9010    12.7860    97.6810 os         1 QPF      -0.313100
     20 CAM         13.5270    14.0330    97.3290 c3         1 QPF       0.146900
     21 H1          10.8280     6.4940   100.9140 ha         1 QPF       0.139000
     22 H2           9.0740     5.5760    99.4400 ha         1 QPF       0.123000
     23 H3           8.4110     6.8020    97.3800 ha         1 QPF       0.136000
     24 H4           9.9440     9.8750    96.4970 ho         1 QPF       0.522000
     25 H5          14.2050    10.0760   102.0200 ha         1 QPF       0.144000
     26 H6          15.6420    11.6870   102.4080 ho         1 QPF       0.476000
     27 H7          14.7480    13.4750    99.5010 ha         1 QPF       0.140000
     28 H8          13.1040    14.4190    96.3940 h1         1 QPF       0.050700
     29 H9          13.3630    14.7870    98.1100 h1         1 QPF       0.050700
     30 H10         14.6060    13.9020    97.1830 h1         1 QPF       0.050700
@<TRIPOS>BOND
     1     1     2 2   
     2     2     3 1   
     3     2    13 1   
     4     3     4 ar  
     5     3     9 ar  
     6     4     5 ar  
     7     4    21 1   
     8     5     6 ar  
     9     5    22 1   
    10     6     7 ar  
    11     6    23 1   
    12     7     8 1   
    13     7     9 ar  
    14     8    24 1   
    15     9    10 1   
    16    10    11 2   
    17    10    12 1   
    18    12    13 ar  
    19    12    18 ar  
    20    13    14 ar  
    21    14    15 ar  
    22    14    25 1   
    23    15    16 1   
    24    15    17 ar  
    25    16    26 1   
    26    17    18 ar  
    27    17    27 1   
    28    18    19 1   
    29    19    20 1   
    30    20    28 1   
    31    20    29 1   
    32    20    30 1   
@<TRIPOS>SUBSTRUCTURE
     1 QPF         1 TEMP              0 ****  ****    0 ROOT
