@<TRIPOS>MOLECULE
QPH
   24    24     1     0     0
SMALL
No Charge or Current Charge


@<TRIPOS>ATOM
      1 C            2.0980    -0.9800     1.6410 c          1 QPH       0.629100
      2 N            3.8470    -1.3660    -0.1290 n2         1 QPH      -0.660200
      3 O            1.2770    -1.4290     2.4260 o          1 QPH      -0.511000
      4 CA           3.4700    -1.6290     1.2950 c3         1 QPH       0.069500
      5 CB           4.5950    -1.0770     2.2080 c3         1 QPH      -0.048100
      6 CG           4.3740    -1.4010     3.6810 ca         1 QPH      -0.057300
      7 CZ           3.9620    -2.0080     6.4040 ca         1 QPH      -0.132000
      8 CD1          4.5520    -2.7170     4.1510 ca         1 QPH      -0.105000
      9 CD2          3.9900    -0.3900     4.5850 ca         1 QPH      -0.105000
     10 CE1          4.3460    -3.0200     5.5090 ca         1 QPH      -0.118000
     11 CE2          3.7840    -0.6940     5.9420 ca         1 QPH      -0.118000
     12 H            2.5600    -0.0180     0.2030 ho         1 QPH       0.486000
     13 HA           3.3630    -2.7050     1.4880 h1         1 QPH       0.063700
     14 HZ           3.8030    -2.2430     7.4540 ha         1 QPH       0.093000
     15 HB2          5.5530    -1.5050     1.8880 hc         1 QPH       0.047200
     16 HB3          4.6830     0.0070     2.0620 hc         1 QPH       0.047200
     17 HD1          4.8500    -3.5060     3.4640 ha         1 QPH       0.115500
     18 HD2          3.8480     0.6300     4.2370 ha         1 QPH       0.115500
     19 HE1          4.4850    -4.0380     5.8650 ha         1 QPH       0.096500
     20 HE2          3.4870     0.0900     6.6350 ha         1 QPH       0.096500
     21 O1           3.2570    -3.3700    -0.9590 o          1 QPH      -0.831300
     22 CN           3.7220    -2.2380    -1.0630 c2         1 QPH       0.549100
     23 HNA          4.0370    -1.9540    -2.0680 h5         1 QPH      -0.061800
     24 OXT          1.7860     0.0360     0.8130 oh         1 QPH      -0.659100
@<TRIPOS>BOND
     1     1     3 2   
     2     1     4 1   
     3     1    24 1   
     4     2     4 1   
     5     2    22 2   
     6     4     5 1   
     7     4    13 1   
     8     5     6 1   
     9     5    15 1   
    10     5    16 1   
    11     6     8 ar  
    12     6     9 ar  
    13     7    10 ar  
    14     7    11 ar  
    15     7    14 1   
    16     8    10 ar  
    17     8    17 1   
    18     9    11 ar  
    19     9    18 1   
    20    10    19 1   
    21    11    20 1   
    22    12    24 1   
    23    21    22 1   
    24    22    23 1   
@<TRIPOS>SUBSTRUCTURE
     1 QPH         1 TEMP              0 ****  ****    0 ROOT
