@<TRIPOS>MOLECULE
QPH
   24    24     1     0     0
SMALL
bcc


@<TRIPOS>ATOM
      1 C            2.0110    -1.2000     1.6930 c          1 QPH       0.668100
      2 N            3.4710    -1.3470    -0.1520 n2         1 QPH      -0.660200
      3 O            1.0630    -1.8640     2.0160 o          1 QPH      -0.550000
      4 CA           3.3440    -1.7510     1.2340 c3         1 QPH       0.069500
      5 CB           4.5020    -1.1990     2.0800 c3         1 QPH      -0.048100
      6 CG           4.3240    -1.4320     3.5540 ca         1 QPH      -0.057300
      7 CZ           3.9590    -1.8800     6.2970 ca         1 QPH      -0.150000
      8 CD1          4.3850    -2.7240     4.0820 ca         1 QPH      -0.123000
      9 CD2          4.0710    -0.3740     4.4220 ca         1 QPH      -0.123000
     10 CE1          4.2070    -2.9470     5.4400 ca         1 QPH      -0.136000
     11 CE2          3.8920    -0.5920     5.7840 ca         1 QPH      -0.136000
     12 H            2.6280     0.5420     1.2220 ho         1 QPH       0.452000
     13 HA           3.3080    -2.8370     1.3750 h1         1 QPH       0.063700
     14 HZ           3.8220    -2.0520     7.3570 ha         1 QPH       0.111000
     15 HB2          5.4210    -1.6740     1.7280 hc         1 QPH       0.047200
     16 HB3          4.6210    -0.1300     1.8860 hc         1 QPH       0.047200
     17 HD1          4.5820    -3.5620     3.4240 ha         1 QPH       0.133500
     18 HD2          4.0190     0.6360     4.0280 ha         1 QPH       0.133500
     19 HE1          4.2640    -3.9550     5.8310 ha         1 QPH       0.114500
     20 HE2          3.7000     0.2470     6.4400 ha         1 QPH       0.114500
     21 O1           4.2960    -3.4360    -0.7580 o          1 QPH      -0.831300
     22 CN           3.9390    -2.2570    -0.9700 c2         1 QPH       0.549100
     23 HNA          4.0060    -1.8660    -2.0080 h5         1 QPH      -0.061800
     24 OXT          1.8950     0.1290     1.7280 oh         1 QPH      -0.625100
@<TRIPOS>BOND
     1     1     3 2   
     2     1     4 1   
     3     1    24 1   
     4     2     4 1   
     5     2    22 2   
     6     4     5 1   
     7     4    13 1   
     8     5     6 1   
     9     5    15 1   
    10     5    16 1   
    11     6     8 ar  
    12     6     9 ar  
    13     7    10 ar  
    14     7    11 ar  
    15     7    14 1   
    16     8    10 ar  
    17     8    17 1   
    18     9    11 ar  
    19     9    18 1   
    20    10    19 1   
    21    11    20 1   
    22    12    24 1   
    23    21    22 1   
    24    22    23 1   
@<TRIPOS>SUBSTRUCTURE
     1 QPH         1 TEMP              0 ****  ****    0 ROOT
