@<TRIPOS>MOLECULE
QPK
   13    13     1     0     0
SMALL
bcc


@<TRIPOS>ATOM
      1 C1          -8.2670    30.8200   -11.7580 ca         1 QPK      -0.110000
      2 C2          -8.6460    31.4510   -12.9310 ca         1 QPK      -0.004600
      3 C3          -8.4000    32.8010   -13.1060 ca         1 QPK       0.128900
      4 C4          -7.7790    33.5630   -12.1230 ca         1 QPK       0.077100
      5 C5          -7.4120    32.9000   -10.9560 ca         1 QPK       0.061900
      6 C           -7.6430    31.5550   -10.7630 ca         1 QPK      -0.134000
      7 O           -7.5760    34.8640   -12.3600 oh         1 QPK      -0.466100
      8 F           -6.8100    33.6170    -9.9950 f          1 QPK      -0.141900
      9 F1          -8.7570    33.4020   -14.2410 f          1 QPK      -0.107900
     10 CL          -9.4260    30.5830   -14.1960 cl         1 QPK      -0.064400
     11 H1          -8.4570    29.7650   -11.6210 ha         1 QPK       0.158000
     12 H2          -7.3360    31.0850    -9.8390 ha         1 QPK       0.159000
     13 H3          -7.1240    35.2900   -11.6210 ho         1 QPK       0.444000
@<TRIPOS>BOND
     1     1     2 ar  
     2     1     6 ar  
     3     1    11 1   
     4     2     3 ar  
     5     2    10 1   
     6     3     4 ar  
     7     3     9 1   
     8     4     5 ar  
     9     4     7 1   
    10     5     6 ar  
    11     5     8 1   
    12     6    12 1   
    13     7    13 1   
@<TRIPOS>SUBSTRUCTURE
     1 QPK         1 TEMP              0 ****  ****    0 ROOT
