@<TRIPOS>MOLECULE
QPK
   13    13     1     0     0
SMALL
No Charge or Current Charge


@<TRIPOS>ATOM
      1 C1          -8.2710    30.8160   -11.7620 ca         1 QPK      -0.092000
      2 C2          -8.6610    31.4380   -12.9610 ca         1 QPK       0.087000
      3 C3          -8.4180    32.8130   -13.1550 ca         1 QPK       0.164000
      4 C4          -7.7830    33.5730   -12.1470 ca         1 QPK       0.077100
      5 C5          -7.3960    32.9370   -10.9480 ca         1 QPK       0.097000
      6 C           -7.6380    31.5660   -10.7550 ca         1 QPK      -0.116000
      7 O           -7.5410    34.9160   -12.3270 oh         1 QPK      -0.505100
      8 F           -6.7860    33.6460    -9.9700 f          1 QPK      -0.177000
      9 F1          -8.7970    33.4070   -14.3130 f          1 QPK      -0.143000
     10 Cl          -9.4530    30.4790   -14.2110 cl         1 QPK      -0.156000
     11 H1          -8.4590    29.7550   -11.6140 ha         1 QPK       0.140000
     12 H2          -7.3350    31.0880    -9.8260 ha         1 QPK       0.141000
     13 H3          -7.0960    35.2630   -11.5220 ho         1 QPK       0.483000
@<TRIPOS>BOND
     1     1     2 ar  
     2     1     6 ar  
     3     1    11 1   
     4     2     3 ar  
     5     2    10 1   
     6     3     4 ar  
     7     3     9 1   
     8     4     5 ar  
     9     4     7 1   
    10     5     6 ar  
    11     5     8 1   
    12     6    12 1   
    13     7    13 1   
@<TRIPOS>SUBSTRUCTURE
     1 QPK         1 TEMP              0 ****  ****    0 ROOT
