@<TRIPOS>MOLECULE
QPL
   43    46     1     0     0
SMALL
No Charge or Current Charge


@<TRIPOS>ATOM
      1 C18        -43.1860   -28.3220     1.9090 c5         1 QPL      -0.014100
      2 C15        -43.7620   -30.6920     2.7900 c          1 QPL       0.718000
      3 C14        -43.8850   -29.7050     1.5960 c5         1 QPL      -0.204700
      4 C13        -45.3720   -29.3550     1.1540 c5         1 QPL       0.167000
      5 C10        -48.2890   -29.4000     3.6140 ca         1 QPL      -0.152600
      6 C20        -43.5570   -26.1490     0.5110 ca         1 QPL       0.116100
      7 C19        -43.9420   -27.4240     0.9610 ca         1 QPL      -0.091300
      8 C03        -51.9350   -29.5950     6.3350 cc         1 QPL       0.384800
      9 C05        -50.4120   -29.5200     4.7990 ca         1 QPL       0.044400
     10 C06        -49.7500   -29.4580     5.9880 ca         1 QPL      -0.060200
     11 C08        -48.3600   -29.3640     6.0790 ca         1 QPL      -0.140000
     12 C09        -47.6240   -29.3350     4.8760 ca         1 QPL      -0.040000
     13 C22        -44.3980   -25.4520    -0.3750 ca         1 QPL      -0.207000
     14 C23        -45.6120   -26.0310    -0.8000 ca         1 QPL      -0.102000
     15 C24        -45.9870   -27.3070    -0.3370 ca         1 QPL      -0.111000
     16 C25        -45.1360   -27.9910     0.5480 ca         1 QPL      -0.064300
     17 C27        -49.7070   -29.4920     3.5870 ca         1 QPL       0.001000
     18 N04        -51.7900   -29.6070     4.9910 nd         1 QPL      -0.543100
     19 N07        -50.6940   -29.5040     6.9650 na         1 QPL      -0.320600
     20 N12        -46.1630   -29.3250     2.3820 ns         1 QPL      -0.483900
     21 O01        -53.1250   -29.6350     8.5110 oh         1 QPL      -0.641000
     22 O16        -44.1460   -30.3540     3.9020 o          1 QPL      -0.725000
     23 O17        -43.2350   -31.7760     2.5930 o          1 QPL      -0.725000
     24 O21        -42.3850   -25.5860     0.9230 oh         1 QPL      -0.540100
     25 H182       -43.3270   -28.0020     2.9470 hc         1 QPL       0.060200
     26 H181       -42.1080   -28.3500     1.7130 hc         1 QPL       0.060200
     27 H141       -43.3940   -30.1700     0.7330 hc         1 QPL       0.052700
     28 H131       -45.7550   -30.0780     0.4190 h1         1 QPL       0.066700
     29 H022       -53.7720   -30.5960     6.7700 h1         1 QPL       0.031200
     30 H021       -53.8900   -28.8330     6.7380 h1         1 QPL       0.031200
     31 H081       -47.8600   -29.3150     7.0440 ha         1 QPL       0.115000
     32 H091       -46.5420   -29.2580     4.9440 ha         1 QPL       0.141000
     33 H221       -44.1200   -24.4650    -0.7370 ha         1 QPL       0.093000
     34 H231       -46.2620   -25.4910    -1.4850 ha         1 QPL       0.097000
     35 H241       -46.9230   -27.7560    -0.6600 ha         1 QPL       0.134000
     36 H271       -50.2520   -29.5430     2.6480 ha         1 QPL       0.147000
     37 H071       -50.5490   -29.4790     7.9650 hn         1 QPL       0.348000
     38 H121       -45.7360   -29.4110     3.2980 hn         1 QPL       0.380500
     39 H011       -54.0310   -29.6890     8.8880 ho         1 QPL       0.436000
     40 H211       -42.3040   -24.7050     0.5000 ho         1 QPL       0.444000
     41 C11        -47.5380   -29.3700     2.3000 c          1 QPL       0.605700
     42 C02        -53.2640   -29.6710     7.0730 c3         1 QPL       0.156300
     43 O26        -48.1240   -29.3860     1.2250 o          1 QPL      -0.663100
@<TRIPOS>BOND
     1     1     3 1   
     2     1     7 1   
     3     1    25 1   
     4     1    26 1   
     5     2     3 1   
     6     2    22 1   
     7     2    23 1   
     8     3     4 1   
     9     3    27 1   
    10     4    16 1   
    11     4    20 1   
    12     4    28 1   
    13     5    12 ar  
    14     5    17 ar  
    15     5    41 1   
    16     6     7 ar  
    17     6    13 ar  
    18     6    24 1   
    19     7    16 ar  
    20     8    18 2   
    21     8    19 1   
    22     8    42 1   
    23     9    10 ar  
    24     9    17 ar  
    25     9    18 1   
    26    10    11 ar  
    27    10    19 1   
    28    11    12 ar  
    29    11    31 1   
    30    12    32 1   
    31    13    14 ar  
    32    13    33 1   
    33    14    15 ar  
    34    14    34 1   
    35    15    16 ar  
    36    15    35 1   
    37    17    36 1   
    38    19    37 1   
    39    20    38 1   
    40    20    41 1   
    41    21    39 1   
    42    21    42 1   
    43    24    40 1   
    44    29    42 1   
    45    30    42 1   
    46    41    43 2   
@<TRIPOS>SUBSTRUCTURE
     1 QPL         1 TEMP              0 ****  ****    0 ROOT
