@<TRIPOS>MOLECULE
QPL
   43    46     1     0     0
SMALL
abcg2


@<TRIPOS>ATOM
      1 C18        -43.1840   -28.4920     1.8240 c5         1 QPL      -0.014100
      2 C15        -43.8960   -30.7250     2.9120 c          1 QPL       0.718000
      3 C14        -43.9780   -29.8110     1.6740 c5         1 QPL      -0.204700
      4 C13        -45.4130   -29.3730     1.2510 c5         1 QPL       0.167000
      5 C10        -48.3510   -29.1260     3.6470 ca         1 QPL      -0.152600
      6 C20        -43.4970   -26.3140     0.4220 ca         1 QPL       0.116100
      7 C19        -43.9140   -27.5490     0.9080 ca         1 QPL      -0.091300
      8 C03        -51.8250   -29.6050     6.4530 cc         1 QPL       0.384800
      9 C05        -50.3740   -29.4900     4.8710 ca         1 QPL       0.044400
     10 C06        -49.7320   -29.0170     6.0380 ca         1 QPL      -0.060200
     11 C08        -48.4090   -28.5850     6.0310 ca         1 QPL      -0.140000
     12 C09        -47.7330   -28.6520     4.8250 ca         1 QPL      -0.040000
     13 C22        -44.3370   -25.5960    -0.4310 ca         1 QPL      -0.207000
     14 C23        -45.5830   -26.1110    -0.7820 ca         1 QPL      -0.102000
     15 C24        -46.0140   -27.3410    -0.2900 ca         1 QPL      -0.111000
     16 C25        -45.1640   -28.0460     0.5540 ca         1 QPL      -0.064300
     17 C27        -49.6800   -29.5370     3.6650 ca         1 QPL       0.001000
     18 N04        -51.6820   -29.8440     5.1680 nd         1 QPL      -0.543100
     19 N07        -50.6860   -29.1050     7.0230 na         1 QPL      -0.320600
     20 N12        -46.2760   -29.2150     2.4180 ns         1 QPL      -0.483900
     21 O01        -53.3180   -31.2480     7.2930 oh         1 QPL      -0.641000
     22 O16        -44.3050   -30.2370     4.0070 o          1 QPL      -0.725000
     23 O17        -43.4260   -31.8750     2.7550 o          1 QPL      -0.725000
     24 O21        -42.2650   -25.8580     0.8030 oh         1 QPL      -0.540100
     25 H182       -43.2150   -28.1350     2.8570 hc         1 QPL       0.060200
     26 H181       -42.1340   -28.6190     1.5560 hc         1 QPL       0.060200
     27 H141       -43.5670   -30.3590     0.8260 hc         1 QPL       0.052700
     28 H131       -45.8700   -30.1050     0.5840 h1         1 QPL       0.066700
     29 H022       -53.9000   -29.3170     6.7660 h1         1 QPL       0.031200
     30 H021       -52.9360   -29.4330     8.2520 h1         1 QPL       0.031200
     31 H081       -47.9270   -28.2090     6.9240 ha         1 QPL       0.115000
     32 H091       -46.7090   -28.3060     4.7910 ha         1 QPL       0.141000
     33 H221       -44.0090   -24.6380    -0.8190 ha         1 QPL       0.093000
     34 H231       -46.2190   -25.5410    -1.4480 ha         1 QPL       0.097000
     35 H241       -46.9850   -27.7360    -0.5520 ha         1 QPL       0.134000
     36 H271       -50.1530   -29.8900     2.7590 ha         1 QPL       0.147000
     37 H071       -50.5730   -28.8560     7.9940 hn         1 QPL       0.348000
     38 H121       -45.8000   -29.3680     3.3070 hn         1 QPL       0.380500
     39 H011       -54.1650   -31.3810     7.7380 ho         1 QPL       0.436000
     40 H211       -42.0920   -24.9970     0.3970 ho         1 QPL       0.444000
     41 C11        -47.6170   -29.2030     2.3410 c          1 QPL       0.605700
     42 C02        -53.0670   -29.8410     7.2460 c3         1 QPL       0.156300
     43 O26        -48.2260   -29.2600     1.2650 o          1 QPL      -0.663100
@<TRIPOS>BOND
     1     1     3 1   
     2     1     7 1   
     3     1    25 1   
     4     1    26 1   
     5     2     3 1   
     6     2    22 1   
     7     2    23 1   
     8     3     4 1   
     9     3    27 1   
    10     4    16 1   
    11     4    20 1   
    12     4    28 1   
    13     5    12 ar  
    14     5    17 ar  
    15     5    41 1   
    16     6     7 ar  
    17     6    13 ar  
    18     6    24 1   
    19     7    16 ar  
    20     8    18 2   
    21     8    19 1   
    22     8    42 1   
    23     9    10 ar  
    24     9    17 ar  
    25     9    18 1   
    26    10    11 ar  
    27    10    19 1   
    28    11    12 ar  
    29    11    31 1   
    30    12    32 1   
    31    13    14 ar  
    32    13    33 1   
    33    14    15 ar  
    34    14    34 1   
    35    15    16 ar  
    36    15    35 1   
    37    17    36 1   
    38    19    37 1   
    39    20    38 1   
    40    20    41 1   
    41    21    39 1   
    42    21    42 1   
    43    24    40 1   
    44    29    42 1   
    45    30    42 1   
    46    41    43 2   
@<TRIPOS>SUBSTRUCTURE
     1 QPL         1 TEMP              0 ****  ****    0 ROOT
