@<TRIPOS>MOLECULE
QPN
   36    38     1     0     0
SMALL
abcg2


@<TRIPOS>ATOM
      1 C6          23.2840     3.2670     9.0530 c6         1 QPN       0.103000
      2 C7          21.9050     3.3050     9.7140 c6         1 QPN      -0.036100
      3 C8          21.1550     2.1170     9.2210 cc         1 QPN      -0.126300
      4 C10         23.2010     0.9500     8.3260 c6         1 QPN       0.174300
      5 N12         19.5050     0.7270     8.6330 nc         1 QPN      -0.508800
      6 C15         17.5710     2.7580     9.1010 ca         1 QPN      -0.113000
      7 C17         16.7610     4.3190    10.7590 ca         1 QPN      -0.154000
      8 C20         19.0000     3.4080    10.9360 ca         1 QPN      -0.174000
      9 C1          26.4940     3.3620    10.4670 c3         1 QPN      -0.085100
     10 C2          25.2890     2.6190    11.0460 c3         1 QPN      -0.159400
     11 O4          25.1870     0.4140    10.1610 o          1 QPN      -0.596100
     12 N5          23.8710     1.9430     9.1510 n          1 QPN      -0.409800
     13 C9          21.7270     1.0580     8.5630 cd         1 QPN      -0.221300
     14 C11         20.6480     0.2260     8.2160 cd         1 QPN       0.267900
     15 N13         19.8180     1.8750     9.2490 na         1 QPN       0.224000
     16 C14         18.7920     2.6860     9.7670 ca         1 QPN       0.048800
     17 C16         16.5660     3.5640     9.6100 ca         1 QPN      -0.073000
     18 C18         17.9830     4.2250    11.3920 ca         1 QPN       0.184000
     19 F19         18.1990     4.9370    12.5070 f          1 QPN      -0.175000
     20 H1          23.9360     4.0190     9.4860 h1         1 QPN       0.059200
     21 H2          23.1890     3.5150     7.9930 h1         1 QPN       0.059200
     22 H3          21.3970     4.2390     9.4630 hc         1 QPN       0.064200
     23 H4          22.0220     3.2840    10.8010 hc         1 QPN       0.064200
     24 H5          23.5730    -0.0400     8.5790 h1         1 QPN       0.071200
     25 H6          23.4420     1.1240     7.2720 h1         1 QPN       0.071200
     26 H7          17.4130     2.1930     8.1950 ha         1 QPN       0.145000
     27 H8          15.9820     4.9600    11.1510 ha         1 QPN       0.137000
     28 H9          19.9150     3.3310    11.5060 ha         1 QPN       0.140000
     29 H10         26.8890     4.0670    11.1970 hc         1 QPN       0.041033
     30 H11         27.2920     2.6670    10.2080 hc         1 QPN       0.041033
     31 H12         26.2350     3.9240     9.5680 hc         1 QPN       0.041033
     32 H13         25.5920     2.0960    11.9530 hc         1 QPN       0.062200
     33 H14         24.5130     3.3270    11.3390 hc         1 QPN       0.062200
     34 H15         20.6670    -0.7170     7.6910 h4         1 QPN       0.043100
     35 H16         15.6170     3.6180     9.0940 ha         1 QPN       0.124000
     36 C3          24.7690     1.5620    10.0930 c          1 QPN       0.608100
@<TRIPOS>BOND
     1     1     2 1   
     2     1    12 1   
     3     1    20 1   
     4     1    21 1   
     5     2     3 1   
     6     2    22 1   
     7     2    23 1   
     8     3    13 2   
     9     3    15 1   
    10     4    12 1   
    11     4    13 1   
    12     4    24 1   
    13     4    25 1   
    14     5    14 2   
    15     5    15 1   
    16     6    16 ar  
    17     6    17 ar  
    18     6    26 1   
    19     7    17 ar  
    20     7    18 ar  
    21     7    27 1   
    22     8    16 ar  
    23     8    18 ar  
    24     8    28 1   
    25     9    10 1   
    26     9    29 1   
    27     9    30 1   
    28     9    31 1   
    29    10    32 1   
    30    10    33 1   
    31    10    36 1   
    32    11    36 2   
    33    12    36 1   
    34    13    14 1   
    35    14    34 1   
    36    15    16 1   
    37    17    35 1   
    38    18    19 1   
@<TRIPOS>SUBSTRUCTURE
     1 QPN         1 TEMP              0 ****  ****    0 ROOT
