@<TRIPOS>MOLECULE
QPN
   36    38     1     0     0
SMALL
No Charge or Current Charge


@<TRIPOS>ATOM
      1 C6          23.2200     3.1840     9.4980 c6         1 QPN       0.103000
      2 C7          21.7550     3.2330    10.0080 c6         1 QPN      -0.036100
      3 C8          21.0060     2.0790     9.4090 cc         1 QPN      -0.126300
      4 C10         23.0810     0.7670     8.7810 c6         1 QPN       0.174300
      5 N12         19.3460     0.6410     8.6030 nc         1 QPN      -0.508800
      6 C15         17.6500     3.1400     8.7630 ca         1 QPN      -0.113000
      7 C17         16.5800     4.4120    10.5400 ca         1 QPN      -0.154000
      8 C20         18.5780     3.1010    11.0120 ca         1 QPN      -0.174000
      9 C1          26.7230     3.6060    10.0460 c3         1 QPN      -0.085100
     10 C2          25.8980     2.5700    10.8420 c3         1 QPN      -0.159400
     11 O4          25.7530     0.5770     9.5200 o          1 QPN      -0.596100
     12 N5          23.8200     1.8070     9.5650 n          1 QPN      -0.409800
     13 C9          21.5880     0.9860     8.8590 cd         1 QPN      -0.221300
     14 C11         20.5540     0.1410     8.3850 cd         1 QPN       0.267900
     15 N13         19.6530     1.8340     9.2270 na         1 QPN       0.224000
     16 C14         18.6340     2.6870     9.6650 ca         1 QPN       0.048800
     17 C16         16.6260     4.0010     9.1970 ca         1 QPN      -0.073000
     18 C18         17.5550     3.9600    11.4420 ca         1 QPN       0.184000
     19 F19         17.5080     4.3520    12.7330 f          1 QPN      -0.175000
     20 H1          23.8100     3.9230    10.0520 h1         1 QPN       0.059200
     21 H2          23.2320     3.5050     8.4460 h1         1 QPN       0.059200
     22 H3          21.2960     4.1950     9.7450 hc         1 QPN       0.064200
     23 H4          21.7500     3.1640    11.1040 hc         1 QPN       0.064200
     24 H5          23.3230    -0.2320     9.1730 h1         1 QPN       0.071200
     25 H6          23.4130     0.8010     7.7330 h1         1 QPN       0.071200
     26 H7          17.6820     2.8260     7.7210 ha         1 QPN       0.145000
     27 H8          15.7920     5.0780    10.8840 ha         1 QPN       0.137000
     28 H9          19.3190     2.7540    11.7260 ha         1 QPN       0.140000
     29 H10         27.2280     4.3000    10.7290 hc         1 QPN       0.041033
     30 H11         27.4890     3.1070     9.4390 hc         1 QPN       0.041033
     31 H12         26.0820     4.1910     9.3760 hc         1 QPN       0.041033
     32 H13         26.5850     2.0090    11.4870 hc         1 QPN       0.062200
     33 H14         25.1780     3.1140    11.4610 hc         1 QPN       0.062200
     34 H15         20.6510    -0.8160     7.8880 h4         1 QPN       0.043100
     35 H16         15.8710     4.3490     8.4940 ha         1 QPN       0.124000
     36 C3          25.1720     1.5820     9.9100 c          1 QPN       0.608100
@<TRIPOS>BOND
     1     1     2 1   
     2     1    12 1   
     3     1    20 1   
     4     1    21 1   
     5     2     3 1   
     6     2    22 1   
     7     2    23 1   
     8     3    13 2   
     9     3    15 1   
    10     4    12 1   
    11     4    13 1   
    12     4    24 1   
    13     4    25 1   
    14     5    14 2   
    15     5    15 1   
    16     6    16 ar  
    17     6    17 ar  
    18     6    26 1   
    19     7    17 ar  
    20     7    18 ar  
    21     7    27 1   
    22     8    16 ar  
    23     8    18 ar  
    24     8    28 1   
    25     9    10 1   
    26     9    29 1   
    27     9    30 1   
    28     9    31 1   
    29    10    32 1   
    30    10    33 1   
    31    10    36 1   
    32    11    36 2   
    33    12    36 1   
    34    13    14 1   
    35    14    34 1   
    36    15    16 1   
    37    17    35 1   
    38    18    19 1   
@<TRIPOS>SUBSTRUCTURE
     1 QPN         1 TEMP              0 ****  ****    0 ROOT
