@<TRIPOS>MOLECULE
QPO
   30    32     1     0     0
SMALL
No Charge or Current Charge


@<TRIPOS>ATOM
      1 C4         -27.0720   -16.3370    17.5780 ca         1 QPO      -0.083600
      2 C5         -26.3420   -15.1410    17.7720 ca         1 QPO      -0.111000
      3 C6         -26.8640   -14.0980    18.5490 ca         1 QPO      -0.048000
      4 C7         -29.1460   -17.7450    17.9850 c          1 QPO       0.635300
      5 C10        -26.4760   -17.4420    16.7320 c          1 QPO       0.581300
      6 C13        -28.7560   -21.0880    16.1670 ca         1 QPO      -0.205000
      7 C17        -25.7490   -21.9760    14.1630 c3         1 QPO       0.146900
      8 C20        -27.2910   -18.7090    16.5480 ca         1 QPO      -0.038600
      9 C12        -27.5000   -20.9540    15.5740 ca         1 QPO       0.211100
     10 C11        -26.7700   -19.7660    15.7650 ca         1 QPO      -0.199000
     11 O31        -25.3700   -17.3160    16.2140 o          1 QPO      -0.507100
     12 C1         -28.1240   -14.2370    19.1420 ca         1 QPO      -0.148000
     13 C2         -28.8630   -15.4130    18.9620 ca         1 QPO       0.217100
     14 O17        -30.0840   -15.5040    19.5580 oh         1 QPO      -0.543100
     15 C3         -28.3510   -16.4780    18.1800 ca         1 QPO      -0.250600
     16 O8         -30.2530   -17.8700    18.5050 o          1 QPO      -0.635100
     17 C9         -28.5700   -18.8570    17.1470 ca         1 QPO      -0.293600
     18 C14        -29.2890   -20.0570    16.9440 ca         1 QPO       0.255100
     19 O18        -30.5160   -20.2420    17.4980 oh         1 QPO      -0.539100
     20 H1         -25.3600   -15.0150    17.3190 ha         1 QPO       0.141000
     21 H2         -26.2910   -13.1830    18.6910 ha         1 QPO       0.125000
     22 H3         -29.3230   -22.0030    16.0230 ha         1 QPO       0.152000
     23 H4         -25.5770   -22.9140    13.6200 h1         1 QPO       0.051367
     24 H5         -25.7010   -21.1520    13.4400 h1         1 QPO       0.051367
     25 H6         -24.9390   -21.8540    14.8940 h1         1 QPO       0.051367
     26 H7         -25.7910   -19.6490    15.3090 ha         1 QPO       0.145000
     27 H8         -28.5320   -13.4300    19.7450 ha         1 QPO       0.139000
     28 H9         -30.4370   -16.3990    19.3110 ho         1 QPO       0.519000
     29 H10        -30.7070   -19.4070    18.0010 ho         1 QPO       0.519000
     30 O19        -27.0300   -22.0090    14.8190 os         1 QPO      -0.339100
@<TRIPOS>BOND
     1     1     2 ar  
     2     1     5 1   
     3     1    15 ar  
     4     2     3 ar  
     5     2    20 1   
     6     3    12 ar  
     7     3    21 1   
     8     4    15 1   
     9     4    16 2   
    10     4    17 1   
    11     5     8 1   
    12     5    11 2   
    13     6     9 ar  
    14     6    18 ar  
    15     6    22 1   
    16     7    23 1   
    17     7    24 1   
    18     7    25 1   
    19     7    30 1   
    20     8    10 ar  
    21     8    17 ar  
    22     9    10 ar  
    23     9    30 1   
    24    10    26 1   
    25    12    13 ar  
    26    12    27 1   
    27    13    14 1   
    28    13    15 ar  
    29    14    28 1   
    30    17    18 ar  
    31    18    19 1   
    32    19    29 1   
@<TRIPOS>SUBSTRUCTURE
     1 QPO         1 TEMP              0 ****  ****    0 ROOT
