@<TRIPOS>MOLECULE
QPO
   30    32     1     0     0
SMALL
abcg2


@<TRIPOS>ATOM
      1 C4         -27.0640   -16.3790    17.5540 ca         1 QPO      -0.083600
      2 C5         -26.3340   -15.2170    17.7420 ca         1 QPO      -0.111000
      3 C6         -26.8610   -14.1840    18.5170 ca         1 QPO      -0.048000
      4 C7         -29.1070   -17.7570    17.9540 c          1 QPO       0.635300
      5 C10        -26.4860   -17.4650    16.7220 c          1 QPO       0.581300
      6 C13        -28.7400   -21.0550    16.1860 ca         1 QPO      -0.205000
      7 C17        -25.7730   -21.8620    14.2260 c3         1 QPO       0.146900
      8 C20        -27.2890   -18.7060    16.5460 ca         1 QPO      -0.038600
      9 C12        -27.4890   -20.9070    15.5950 ca         1 QPO       0.211100
     10 C11        -26.7570   -19.7240    15.7770 ca         1 QPO      -0.199000
     11 O31        -25.3890   -17.3460    16.1970 o          1 QPO      -0.507100
     12 C1         -28.1070   -14.3060    19.1010 ca         1 QPO      -0.148000
     13 C2         -28.8580   -15.4740    18.9220 ca         1 QPO       0.217100
     14 O17        -30.0620   -15.5380    19.5080 oh         1 QPO      -0.543100
     15 C3         -28.3380   -16.5300    18.1430 ca         1 QPO      -0.250600
     16 O8         -30.2430   -17.8760    18.4880 o          1 QPO      -0.635100
     17 C9         -28.5560   -18.8290    17.1540 ca         1 QPO      -0.293600
     18 C14        -29.2780   -20.0340    16.9580 ca         1 QPO       0.255100
     19 O18        -30.4880   -20.2320    17.5010 oh         1 QPO      -0.539100
     20 H1         -25.3610   -15.1240    17.2820 ha         1 QPO       0.141000
     21 H2         -26.2900   -13.2760    18.6630 ha         1 QPO       0.125000
     22 H3         -29.3000   -21.9700    16.0450 ha         1 QPO       0.152000
     23 H4         -25.6460   -22.8040    13.7020 h1         1 QPO       0.051367
     24 H5         -25.7530   -21.0350    13.5140 h1         1 QPO       0.051367
     25 H6         -24.9800   -21.7380    14.9650 h1         1 QPO       0.051367
     26 H7         -25.7850   -19.5840    15.3320 ha         1 QPO       0.145000
     27 H8         -28.5260   -13.5100    19.7030 ha         1 QPO       0.139000
     28 H9         -30.4440   -16.4230    19.2830 ho         1 QPO       0.519000
     29 H10        -30.7160   -19.4130    18.0080 ho         1 QPO       0.519000
     30 O19        -27.0540   -21.9490    14.8660 os         1 QPO      -0.339100
@<TRIPOS>BOND
     1     1     2 ar  
     2     1     5 1   
     3     1    15 ar  
     4     2     3 ar  
     5     2    20 1   
     6     3    12 ar  
     7     3    21 1   
     8     4    15 1   
     9     4    16 2   
    10     4    17 1   
    11     5     8 1   
    12     5    11 2   
    13     6     9 ar  
    14     6    18 ar  
    15     6    22 1   
    16     7    23 1   
    17     7    24 1   
    18     7    25 1   
    19     7    30 1   
    20     8    10 ar  
    21     8    17 ar  
    22     9    10 ar  
    23     9    30 1   
    24    10    26 1   
    25    12    13 ar  
    26    12    27 1   
    27    13    14 1   
    28    13    15 ar  
    29    14    28 1   
    30    17    18 ar  
    31    18    19 1   
    32    19    29 1   
@<TRIPOS>SUBSTRUCTURE
     1 QPO         1 TEMP              0 ****  ****    0 ROOT
