@<TRIPOS>MOLECULE
QPP
   38    41     1     0     0
SMALL
No Charge or Current Charge


@<TRIPOS>ATOM
      1 CAK          4.4710     3.4200     4.3590 ca         1 QPP      -0.063500
      2 CAL          5.0250     4.3790     5.2250 ca         1 QPP      -0.133000
      3 CAM          6.3980     4.3670     5.5070 ca         1 QPP      -0.093000
      4 CAN          7.2190     3.3920     4.9220 ca         1 QPP      -0.133000
      5 CAO          6.6700     2.4310     4.0560 ca         1 QPP      -0.063500
      6 CAP          5.2790     2.4180     3.7500 cp         1 QPP      -0.154500
      7 C2           4.6880     1.3860     2.8190 cp         1 QPP       0.245500
      8 N1           5.5200     0.4730     2.2840 nb         1 QPP      -0.247000
      9 N3           3.3620     1.4380     2.5780 nb         1 QPP      -0.213000
     10 C4           2.8170     0.5250     1.7500 ca         1 QPP       0.059000
     11 CAA          1.4360     0.5510     1.4770 ca         1 QPP      -0.097000
     12 CAB          0.8580    -0.3950     0.6160 ca         1 QPP      -0.084000
     13 CAC          1.6590    -1.3800     0.0190 ca         1 QPP      -0.126000
     14 CAD          3.0380    -1.4210     0.2800 ca         1 QPP      -0.074000
     15 C5           3.6260    -0.4680     1.1480 ca         1 QPP      -0.177000
     16 C6           5.0090    -0.4510     1.4550 ca         1 QPP       0.413900
     17 NAQ          5.8910    -1.3890     0.9110 nu         1 QPP      -0.887800
     18 CAR          7.2310    -1.6230     1.0150 cc         1 QPP       0.496900
     19 CAV          7.8110    -2.6780     0.3130 cc         1 QPP      -0.273000
     20 CAU          9.1380    -2.6580     0.6140 cd         1 QPP      -0.112300
     21 CAW         10.2580    -3.5530     0.1540 c3         1 QPP      -0.034800
     22 NAT          9.2820    -1.5730     1.4940 na         1 QPP      -0.011200
     23 NAS          8.0680    -0.9250     1.7410 nd         1 QPP      -0.500800
     24 HAK          3.4010     3.4610     4.1640 ha         1 QPP       0.139500
     25 HAL          4.3850     5.1340     5.6770 ha         1 QPP       0.110500
     26 HAM          6.8250     5.1100     6.1770 ha         1 QPP       0.109000
     27 HAN          8.2850     3.3800     5.1390 ha         1 QPP       0.110500
     28 HAO          7.3390     1.6910     3.6210 ha         1 QPP       0.139500
     29 HAA          0.8090     1.3120     1.9370 ha         1 QPP       0.134000
     30 HAB         -0.2110    -0.3650     0.4130 ha         1 QPP       0.117000
     31 HAC          1.2100    -2.1130    -0.6480 ha         1 QPP       0.116000
     32 HAD          3.6300    -2.1960    -0.1990 ha         1 QPP       0.103000
     33 HAQ          5.4440    -2.0560     0.2940 hn         1 QPP       0.505000
     34 HAV          7.2930    -3.3710    -0.3400 ha         1 QPP       0.144000
     35 HAW1        10.7340    -4.0570     1.0030 hc         1 QPP       0.053700
     36 HAW2         9.8900    -4.3270    -0.5310 hc         1 QPP       0.053700
     37 HAW3        11.0290    -2.9800    -0.3740 hc         1 QPP       0.053700
     38 HAT         10.1500    -1.2600     1.9250 hn         1 QPP       0.372000
@<TRIPOS>BOND
     1     1     2 ar  
     2     1     6 ar  
     3     1    24 1   
     4     2     3 ar  
     5     2    25 1   
     6     3     4 ar  
     7     3    26 1   
     8     4     5 ar  
     9     4    27 1   
    10     5     6 ar  
    11     5    28 1   
    12     6     7 1   
    13     7     8 ar  
    14     7     9 ar  
    15     8    16 ar  
    16     9    10 ar  
    17    10    11 ar  
    18    10    15 ar  
    19    11    12 ar  
    20    11    29 1   
    21    12    13 ar  
    22    12    30 1   
    23    13    14 ar  
    24    13    31 1   
    25    14    15 ar  
    26    14    32 1   
    27    15    16 ar  
    28    16    17 1   
    29    17    18 1   
    30    17    33 1   
    31    18    19 1   
    32    18    23 2   
    33    19    20 2   
    34    19    34 1   
    35    20    21 1   
    36    20    22 1   
    37    21    35 1   
    38    21    36 1   
    39    21    37 1   
    40    22    23 1   
    41    22    38 1   
@<TRIPOS>SUBSTRUCTURE
     1 QPP         1 TEMP              0 ****  ****    0 ROOT
