@<TRIPOS>MOLECULE
QPP
   38    41     1     0     0
SMALL
bcc


@<TRIPOS>ATOM
      1 CAK          4.5670     3.2450     4.3510 ca         1 QPP      -0.081500
      2 CAL          5.1860     4.1370     5.2120 ca         1 QPP      -0.151000
      3 CAM          6.5610     4.0800     5.4080 ca         1 QPP      -0.111000
      4 CAN          7.3120     3.1260     4.7340 ca         1 QPP      -0.151000
      5 CAO          6.6950     2.2310     3.8710 ca         1 QPP      -0.081500
      6 CAP          5.3150     2.2820     3.6720 cp         1 QPP      -0.154500
      7 C2           4.6580     1.3220     2.7560 cp         1 QPP       0.771500
      8 N1           5.4700     0.4100     2.1940 nb         1 QPP      -0.773000
      9 N3           3.3700     1.4270     2.5700 nb         1 QPP      -0.739000
     10 C4           2.7980     0.5290     1.7290 ca         1 QPP       0.452600
     11 CAA          1.4100     0.6070     1.4940 ca         1 QPP      -0.180300
     12 CAB          0.7990    -0.2790     0.6450 ca         1 QPP      -0.102000
     13 CAC          1.5460    -1.2780    -0.0020 ca         1 QPP      -0.144000
     14 CAD          2.8990    -1.3740     0.2130 ca         1 QPP      -0.092000
     15 C5           3.5460    -0.4760     1.0800 ca         1 QPP      -0.307600
     16 C6           4.9560    -0.4750     1.3790 ca         1 QPP       0.742200
     17 NAQ          5.7590    -1.4000     0.8130 nu         1 QPP      -0.832600
     18 CAR          7.1340    -1.5680     0.9380 cc         1 QPP       0.562200
     19 CAV          7.8090    -2.7240     0.4920 cc         1 QPP      -0.356300
     20 CAU          9.1360    -2.4740     0.7640 cd         1 QPP      -0.061600
     21 CAW         10.3500    -3.3020     0.5440 c3         1 QPP      -0.034800
     22 NAT          9.1660    -1.2550     1.3260 na         1 QPP      -0.011600
     23 NAS          7.9650    -0.6780     1.4400 nd         1 QPP      -0.500800
     24 HAK          3.4970     3.2920     4.2000 ha         1 QPP       0.157500
     25 HAL          4.5930     4.8780     5.7330 ha         1 QPP       0.128500
     26 HAM          7.0440     4.7760     6.0810 ha         1 QPP       0.127000
     27 HAN          8.3830     3.0770     4.8820 ha         1 QPP       0.128500
     28 HAO          7.2800     1.4880     3.3450 ha         1 QPP       0.157500
     29 HAA          0.8450     1.3810     1.9970 ha         1 QPP       0.152000
     30 HAB         -0.2660    -0.2100     0.4680 ha         1 QPP       0.135000
     31 HAC          1.0550    -1.9720    -0.6700 ha         1 QPP       0.134000
     32 HAD          3.4450    -2.1540    -0.3020 ha         1 QPP       0.121000
     33 HAQ          5.3190    -2.1060     0.2470 hn         1 QPP       0.449800
     34 HAV          7.3880    -3.6080     0.0420 ha         1 QPP       0.162000
     35 HAW1        10.7990    -3.6110     1.4890 hc         1 QPP       0.053700
     36 HAW2        10.0940    -4.1990    -0.0160 hc         1 QPP       0.053700
     37 HAW3        11.1080    -2.7580    -0.0190 hc         1 QPP       0.053700
     38 HAT          9.9790    -0.7550     1.6460 hn         1 QPP       0.321700
@<TRIPOS>BOND
     1     1     2 ar  
     2     1     6 ar  
     3     1    24 1   
     4     2     3 ar  
     5     2    25 1   
     6     3     4 ar  
     7     3    26 1   
     8     4     5 ar  
     9     4    27 1   
    10     5     6 ar  
    11     5    28 1   
    12     6     7 1   
    13     7     8 ar  
    14     7     9 ar  
    15     8    16 ar  
    16     9    10 ar  
    17    10    11 ar  
    18    10    15 ar  
    19    11    12 ar  
    20    11    29 1   
    21    12    13 ar  
    22    12    30 1   
    23    13    14 ar  
    24    13    31 1   
    25    14    15 ar  
    26    14    32 1   
    27    15    16 ar  
    28    16    17 1   
    29    17    18 1   
    30    17    33 1   
    31    18    19 1   
    32    18    23 2   
    33    19    20 2   
    34    19    34 1   
    35    20    21 1   
    36    20    22 1   
    37    21    35 1   
    38    21    36 1   
    39    21    37 1   
    40    22    23 1   
    41    22    38 1   
@<TRIPOS>SUBSTRUCTURE
     1 QPP         1 TEMP              0 ****  ****    0 ROOT
