@<TRIPOS>MOLECULE
QPQ
   43    46     1     0     0
SMALL
abcg2


@<TRIPOS>ATOM
      1 N1         -17.0480     4.1330    25.6050 nb         1 QPQ      -0.651000
      2 C4         -22.5530     5.6710    30.9380 ca         1 QPQ       0.198100
      3 C5         -22.7130     4.9220    32.1060 ca         1 QPQ      -0.185000
      4 C6         -22.5060     3.5620    32.0660 ca         1 QPQ       0.223000
      5 C7         -22.1360     2.9140    30.8910 ca         1 QPQ       0.034000
      6 C8         -21.9870     3.6640    29.7380 ca         1 QPQ      -0.022000
      7 C10        -20.5580     5.9310    28.1010 c          1 QPQ       0.607100
      8 C13        -16.3650     5.2300    25.3680 ca         1 QPQ       0.358900
      9 C15        -16.1030     7.6900    25.2990 ca         1 QPQ      -0.084000
     10 C17        -17.9550     9.0730    25.9890 ca         1 QPQ      -0.093000
     11 O2         -19.7620     6.3950    28.9080 o          1 QPQ      -0.578100
     12 C1         -22.0610     5.8220    28.4450 c6         1 QPQ       0.169300
     13 C9         -22.2000     5.0400    29.7400 ca         1 QPQ      -0.205300
     14 F          -22.6580     2.8460    33.1960 f          1 QPQ      -0.159000
     15 O1         -22.7790     7.0020    31.0430 os         1 QPQ      -0.341100
     16 C3         -22.2940     7.8290    29.9650 c6         1 QPQ       0.160600
     17 C2         -22.6400     7.2380    28.6160 c6         1 QPQ      -0.128400
     18 O          -22.6740     5.1340    27.3560 os         1 QPQ      -0.487000
     19 C          -24.0740     4.8750    27.4340 c3         1 QPQ       0.151900
     20 C11        -18.8950     5.4740    26.3710 ca         1 QPQ      -0.076000
     21 C19        -18.1870     6.6740    26.1020 ca         1 QPQ      -0.002000
     22 C18        -18.7170     7.9710    26.2870 ca         1 QPQ      -0.087000
     23 C16        -16.6380     8.9360    25.4960 ca         1 QPQ      -0.107000
     24 C14        -16.8660     6.5350    25.5900 ca         1 QPQ      -0.091000
     25 C12        -18.3000     4.2650    26.1090 ca         1 QPQ       0.310900
     26 H1         -22.9900     5.4040    33.0330 ha         1 QPQ       0.152000
     27 H2         -21.7170     3.1700    28.8150 ha         1 QPQ       0.137000
     28 H3         -15.3590     5.1160    24.9740 h4         1 QPQ       0.022100
     29 H4         -15.0980     7.5700    24.9140 ha         1 QPQ       0.118000
     30 H5         -18.3680    10.0640    26.1290 ha         1 QPQ       0.115000
     31 H6         -21.2160     7.9470    30.0820 h1         1 QPQ       0.077700
     32 H7         -22.7810     8.7920    30.1040 h1         1 QPQ       0.077700
     33 H8         -22.2750     7.8910    27.8220 hc         1 QPQ       0.068200
     34 H9         -23.7250     7.1810    28.5280 hc         1 QPQ       0.068200
     35 H10        -24.2910     4.1590    26.6430 h1         1 QPQ       0.041700
     36 H11        -24.3460     4.4380    28.3980 h1         1 QPQ       0.041700
     37 H12        -24.6610     5.7800    27.2680 h1         1 QPQ       0.041700
     38 H13        -20.9540     5.0460    26.3390 hn         1 QPQ       0.183000
     39 H14        -19.7230     8.0890    26.6610 ha         1 QPQ       0.119000
     40 H15        -16.0570     9.8220    25.2710 ha         1 QPQ       0.118000
     41 H16        -18.8430     3.3470    26.3070 h4         1 QPQ       0.023100
     42 N          -20.2220     5.5000    26.8680 ns         1 QPQ      -0.150000
     43 CL         -21.8760     1.1940    30.8840 cl         1 QPQ      -0.173000
@<TRIPOS>BOND
     1     1     8 ar  
     2     1    25 ar  
     3     2     3 ar  
     4     2    13 ar  
     5     2    15 1   
     6     3     4 ar  
     7     3    26 1   
     8     4     5 ar  
     9     4    14 1   
    10     5     6 ar  
    11     5    43 1   
    12     6    13 ar  
    13     6    27 1   
    14     7    11 2   
    15     7    12 1   
    16     7    42 1   
    17     8    24 ar  
    18     8    28 1   
    19     9    23 ar  
    20     9    24 ar  
    21     9    29 1   
    22    10    22 ar  
    23    10    23 ar  
    24    10    30 1   
    25    12    13 1   
    26    12    17 1   
    27    12    18 1   
    28    15    16 1   
    29    16    17 1   
    30    16    31 1   
    31    16    32 1   
    32    17    33 1   
    33    17    34 1   
    34    18    19 1   
    35    19    35 1   
    36    19    36 1   
    37    19    37 1   
    38    20    21 ar  
    39    20    25 ar  
    40    20    42 1   
    41    21    22 ar  
    42    21    24 ar  
    43    22    39 1   
    44    23    40 1   
    45    25    41 1   
    46    38    42 1   
@<TRIPOS>SUBSTRUCTURE
     1 QPQ         1 TEMP              0 ****  ****    0 ROOT
