@<TRIPOS>MOLECULE
QPQ
   43    46     1     0     0
SMALL
No Charge or Current Charge


@<TRIPOS>ATOM
      1 N1         -16.5860     4.5270    26.4350 nb         1 QPQ      -0.651000
      2 C4         -22.3430     5.7830    30.5890 ca         1 QPQ       0.198100
      3 C5         -22.3370     5.4010    31.9380 ca         1 QPQ      -0.185000
      4 C6         -22.2470     4.0480    32.2850 ca         1 QPQ       0.223000
      5 C7         -22.1700     3.0640    31.2840 ca         1 QPQ       0.034000
      6 C8         -22.1910     3.4440    29.9310 ca         1 QPQ      -0.022000
      7 C10        -20.9350     4.7820    27.4430 c          1 QPQ       0.607100
      8 C13        -16.0170     5.6580    25.9620 ca         1 QPQ       0.358900
      9 C15        -16.0500     8.0340    25.3870 ca         1 QPQ      -0.084000
     10 C17        -18.0790     9.3300    25.7290 ca         1 QPQ      -0.093000
     11 O2         -20.7030     3.6310    27.0780 o          1 QPQ      -0.578100
     12 C1         -22.3420     5.1930    28.0620 c6         1 QPQ       0.169300
     13 C9         -22.2830     4.8080    29.5640 ca         1 QPQ      -0.205300
     14 F          -22.2350     3.6970    33.5920 f          1 QPQ      -0.159000
     15 O1         -22.4330     7.1250    30.3050 os         1 QPQ      -0.341100
     16 C3         -22.0340     7.5900    29.0080 c6         1 QPQ       0.160600
     17 C2         -22.6780     6.7200    27.9070 c6         1 QPQ      -0.128400
     18 O          -23.3930     4.3630    27.4670 os         1 QPQ      -0.487000
     19 C          -24.7470     4.4190    27.9800 c3         1 QPQ       0.151900
     20 C11        -18.6550     5.7730    26.7970 ca         1 QPQ      -0.076000
     21 C19        -18.0450     6.9550    26.3090 ca         1 QPQ      -0.002000
     22 C18        -18.7330     8.1880    26.2240 ca         1 QPQ      -0.087000
     23 C16        -16.7410     9.2540    25.3120 ca         1 QPQ      -0.107000
     24 C14        -16.7000     6.8870    25.8840 ca         1 QPQ      -0.091000
     25 C12        -17.8740     4.5910    26.8420 ca         1 QPQ       0.310900
     26 H1         -22.3950     6.1570    32.7150 ha         1 QPQ       0.152000
     27 H2         -22.1500     2.6710    29.1670 ha         1 QPQ       0.137000
     28 H3         -14.9790     5.5760    25.6410 h4         1 QPQ       0.022100
     29 H4         -15.0140     7.9810    25.0610 ha         1 QPQ       0.118000
     30 H5         -18.6140    10.2760    25.6660 ha         1 QPQ       0.115000
     31 H6         -20.9380     7.5650    28.9520 h1         1 QPQ       0.077700
     32 H7         -22.3470     8.6380    28.8960 h1         1 QPQ       0.077700
     33 H8         -22.3850     7.0820    26.9120 hc         1 QPQ       0.068200
     34 H9         -23.7580     6.8940    27.9650 hc         1 QPQ       0.068200
     35 H10        -25.3520     3.6260    27.5240 h1         1 QPQ       0.041700
     36 H11        -24.7760     4.2740    29.0670 h1         1 QPQ       0.041700
     37 H12        -25.2320     5.3730    27.7410 h1         1 QPQ       0.041700
     38 H13        -20.3330     6.7200    27.5180 hn         1 QPQ       0.183000
     39 H14        -19.7710     8.2790    26.5310 ha         1 QPQ       0.119000
     40 H15        -16.2390    10.1400    24.9280 ha         1 QPQ       0.118000
     41 H16        -18.2720     3.6610    27.2410 h4         1 QPQ       0.023100
     42 N          -20.0050     5.8010    27.2600 ns         1 QPQ      -0.150000
     43 Cl         -22.0610     1.3540    31.7020 cl         1 QPQ      -0.173000
@<TRIPOS>BOND
     1     1     8 ar  
     2     1    25 ar  
     3     2     3 ar  
     4     2    13 ar  
     5     2    15 1   
     6     3     4 ar  
     7     3    26 1   
     8     4     5 ar  
     9     4    14 1   
    10     5     6 ar  
    11     5    43 1   
    12     6    13 ar  
    13     6    27 1   
    14     7    11 2   
    15     7    12 1   
    16     7    42 1   
    17     8    24 ar  
    18     8    28 1   
    19     9    23 ar  
    20     9    24 ar  
    21     9    29 1   
    22    10    22 ar  
    23    10    23 ar  
    24    10    30 1   
    25    12    13 1   
    26    12    17 1   
    27    12    18 1   
    28    15    16 1   
    29    16    17 1   
    30    16    31 1   
    31    16    32 1   
    32    17    33 1   
    33    17    34 1   
    34    18    19 1   
    35    19    35 1   
    36    19    36 1   
    37    19    37 1   
    38    20    21 ar  
    39    20    25 ar  
    40    20    42 1   
    41    21    22 ar  
    42    21    24 ar  
    43    22    39 1   
    44    23    40 1   
    45    25    41 1   
    46    38    42 1   
@<TRIPOS>SUBSTRUCTURE
     1 QPQ         1 TEMP              0 ****  ****    0 ROOT
