@<TRIPOS>MOLECULE
QPR
   24    25     1     0     0
SMALL
bcc


@<TRIPOS>ATOM
      1 CAA          3.6020     0.3850    -0.0460 c3         1 QPR      -0.194100
      2 CAB         -1.1460     2.9750    -0.0190 c3         1 QPR       0.030600
      3 CAD         -1.9850    -2.1410     0.0260 ca         1 QPR      -0.152000
      4 CAE         -2.9270    -1.1030     0.0280 ca         1 QPR      -0.114000
      5 CAF         -0.6260    -1.8810     0.0110 ca         1 QPR      -0.071000
      6 CAG         -2.5300     0.2220     0.0160 ca         1 QPR      -0.142000
      7 CAH          0.8260     1.4560    -0.0240 cc         1 QPR      -0.052100
      8 CAI          2.3970    -0.5230    -0.0270 c          1 QPR       0.611300
      9 CAJ          1.0870     0.1010    -0.0180 cd         1 QPR      -0.246400
     10 CAK         -0.1960    -0.5500    -0.0020 ca         1 QPR      -0.049800
     11 CAL         -1.1620     0.4750     0.0010 ca         1 QPR      -0.067200
     12 NAM         -0.5020     1.6830    -0.0130 na         1 QPR      -0.046400
     13 OAC          2.5210    -1.7380    -0.0200 o          1 QPR      -0.541100
     14 H1           3.6030     1.0520     0.8170 hc         1 QPR       0.055700
     15 H2           4.5190    -0.2000    -0.0360 hc         1 QPR       0.055700
     16 H3           3.6000     1.0130    -0.9390 hc         1 QPR       0.055700
     17 H4          -1.7800     3.0910     0.8600 h1         1 QPR       0.052700
     18 H5          -0.3880     3.7530    -0.0090 h1         1 QPR       0.052700
     19 H6          -1.7590     3.0940    -0.9120 h1         1 QPR       0.052700
     20 H7          -2.3300    -3.1670     0.0360 ha         1 QPR       0.131000
     21 H8          -3.9830    -1.3390     0.0400 ha         1 QPR       0.129000
     22 H9           0.0880    -2.6910     0.0090 ha         1 QPR       0.155000
     23 H10         -3.2580     1.0230     0.0190 ha         1 QPR       0.131000
     24 H11          1.5180     2.2850    -0.0350 h4         1 QPR       0.162000
@<TRIPOS>BOND
     1     1     8 1   
     2     1    14 1   
     3     1    15 1   
     4     1    16 1   
     5     2    12 1   
     6     2    17 1   
     7     2    18 1   
     8     2    19 1   
     9     3     4 ar  
    10     3     5 ar  
    11     3    20 1   
    12     4     6 ar  
    13     4    21 1   
    14     5    10 ar  
    15     5    22 1   
    16     6    11 ar  
    17     6    23 1   
    18     7     9 2   
    19     7    12 1   
    20     7    24 1   
    21     8     9 1   
    22     8    13 2   
    23     9    10 1   
    24    10    11 ar  
    25    11    12 1   
@<TRIPOS>SUBSTRUCTURE
     1 QPR         1 TEMP              0 ****  ****    0 ROOT
