@<TRIPOS>MOLECULE
QPR
   24    25     1     0     0
SMALL
No Charge or Current Charge


@<TRIPOS>ATOM
      1 CAA          3.6560     0.3230    -0.0440 c3         1 QPR      -0.194100
      2 CAB         -1.2040     2.9960    -0.0180 c3         1 QPR       0.059900
      3 CAD         -1.9930    -2.1620     0.0260 ca         1 QPR      -0.134000
      4 CAE         -2.9480    -1.1170     0.0270 ca         1 QPR      -0.096000
      5 CAF         -0.6120    -1.8700     0.0110 ca         1 QPR      -0.053000
      6 CAG         -2.5310     0.2310     0.0140 ca         1 QPR      -0.124000
      7 CAH          0.9080     1.5180    -0.0270 cc         1 QPR      -0.102100
      8 CAI          2.3980    -0.5470    -0.0260 c          1 QPR       0.611300
      9 CAJ          1.0690     0.1330    -0.0190 cd         1 QPR      -0.246400
     10 CAK         -0.2290    -0.5190    -0.0020 ca         1 QPR      -0.049800
     11 CAL         -1.1510     0.4940    -0.0010 ca         1 QPR      -0.067200
     12 NAM         -0.4850     1.7120    -0.0160 na         1 QPR      -0.075700
     13 OAC          2.5070    -1.7670    -0.0180 o          1 QPR      -0.541100
     14 H1           3.6240     1.0140     0.8060 hc         1 QPR       0.055700
     15 H2           4.5790    -0.2670    -0.0480 hc         1 QPR       0.055700
     16 H3           3.6080     1.0010    -0.9030 hc         1 QPR       0.055700
     17 H4          -1.8250     3.0710     0.8820 h1         1 QPR       0.052700
     18 H5          -0.4850     3.8240    -0.0310 h1         1 QPR       0.052700
     19 H6          -1.8420     3.0580    -0.9080 h1         1 QPR       0.052700
     20 H7          -2.3250    -3.1980     0.0360 ha         1 QPR       0.113000
     21 H8          -4.0090    -1.3540     0.0380 ha         1 QPR       0.111000
     22 H9           0.1220    -2.6710     0.0100 ha         1 QPR       0.137000
     23 H10         -3.2620     1.0360     0.0140 ha         1 QPR       0.113000
     24 H11          1.6210     2.3370    -0.0400 h4         1 QPR       0.212000
@<TRIPOS>BOND
     1     1     8 1   
     2     1    14 1   
     3     1    15 1   
     4     1    16 1   
     5     2    12 1   
     6     2    17 1   
     7     2    18 1   
     8     2    19 1   
     9     3     4 ar  
    10     3     5 ar  
    11     3    20 1   
    12     4     6 ar  
    13     4    21 1   
    14     5    10 ar  
    15     5    22 1   
    16     6    11 ar  
    17     6    23 1   
    18     7     9 2   
    19     7    12 1   
    20     7    24 1   
    21     8     9 1   
    22     8    13 2   
    23     9    10 1   
    24    10    11 ar  
    25    11    12 1   
@<TRIPOS>SUBSTRUCTURE
     1 QPR         1 TEMP              0 ****  ****    0 ROOT
