@<TRIPOS>MOLECULE
QPS
   87    90     1     0     0
SMALL
No Charge or Current Charge


@<TRIPOS>ATOM
      1 C1A          5.7280    -0.2070     0.5260 c6         1 QPS       0.226700
      2 C2A          5.6930     0.3010     2.0160 c6         1 QPS       0.176300
      3 C3A          7.1400     0.3740     2.6010 c6         1 QPS       0.108300
      4 C4A          7.9930     1.3830     1.7570 c6         1 QPS       0.187500
      5 C5A          7.9320     1.0500     0.2670 c2         1 QPS      -0.140400
      6 C6A          9.1070     1.5400    -0.5590 c3         1 QPS       0.210800
      7 C7A          6.9010     0.3620    -0.2660 c2         1 QPS      -0.135200
      8 O2A          5.0630     1.5970     2.1100 oh         1 QPS      -0.690000
      9 O3A          7.7480    -0.9350     2.6190 oh         1 QPS      -0.645000
     10 O4A          7.5000     2.7220     1.9360 oh         1 QPS      -0.700000
     11 O6A          9.9220     0.4290    -0.9450 oh         1 QPS      -0.660000
     12 C1B          1.0000    -2.1960    -1.3010 c6         1 QPS       0.368300
     13 C2B          1.8340    -2.7530    -0.0980 c6         1 QPS       0.112300
     14 C3B          2.7660    -1.6430     0.4710 c6         1 QPS       0.110300
     15 C4B          3.6400    -1.0000    -0.6690 c6         1 QPS       0.158500
     16 C5B          2.6970    -0.5420    -1.8360 c6         1 QPS       0.178300
     17 C6B          3.4740    -0.0370    -3.0800 c3         1 QPS      -0.084100
     18 N4B          4.4830     0.1480    -0.2000 n7         1 QPS      -0.869400
     19 O2B          1.0120    -3.2950     0.9670 oh         1 QPS      -0.729000
     20 O3B          3.5580    -2.2260     1.5210 oh         1 QPS      -0.661000
     21 O5B          1.8670    -1.6320    -2.3010 os         1 QPS      -0.471000
     22 C1C         -4.1370    -1.2000    -0.0390 c6         1 QPS       0.365300
     23 C2C         -3.1810    -1.6230     1.1300 c6         1 QPS       0.116300
     24 C3C         -1.7330    -1.1550     0.8140 c6         1 QPS       0.134300
     25 C4C         -1.2890    -1.6650    -0.5870 c6         1 QPS       0.166300
     26 C5C         -2.3190    -1.2250    -1.6690 c6         1 QPS       0.147300
     27 C6C         -1.9720    -1.7730    -3.0920 c3         1 QPS       0.162600
     28 O2C         -3.5950    -1.0980     2.4180 oh         1 QPS      -0.724000
     29 O3C         -0.8410    -1.5970     1.8570 oh         1 QPS      -0.729000
     30 O4C          0.0470    -1.1930    -0.8920 os         1 QPS      -0.502000
     31 O5C         -3.6500    -1.6880    -1.3060 os         1 QPS      -0.452000
     32 O6C         -2.9460    -1.4160    -4.0940 oh         1 QPS      -0.718000
     33 C1D         -7.6320     2.7740     0.5950 c6         1 QPS       0.364300
     34 C2D         -7.6390     1.4050     1.3530 c6         1 QPS       0.112300
     35 C3D         -6.1890     0.8560     1.3800 c6         1 QPS       0.164300
     36 C4D         -5.6500     0.7270    -0.0840 c6         1 QPS       0.156300
     37 C5D         -5.7610     2.1140    -0.7880 c6         1 QPS       0.161300
     38 C6D         -5.3150     2.0500    -2.2860 c3         1 QPS       0.164600
     39 O1D         -8.9440     3.2670     0.4290 oh         1 QPS      -0.706000
     40 O2D         -8.1620     1.5200     2.6980 oh         1 QPS      -0.726000
     41 O3D         -6.1570    -0.3810     2.1170 oh         1 QPS      -0.728000
     42 O4D         -4.2870     0.2340    -0.1220 os         1 QPS      -0.500000
     43 O5D         -7.1340     2.5940    -0.7320 os         1 QPS      -0.467000
     44 O6D         -5.4560     3.3090    -2.9770 oh         1 QPS      -0.713000
     45 H1A          5.8560    -1.3010     0.5510 h1         1 QPS       0.078700
     46 H2A          5.1150    -0.4190     2.6130 h1         1 QPS       0.043700
     47 H3A          7.0780     0.7500     3.6330 h1         1 QPS       0.024700
     48 H4A          9.0360     1.3270     2.1030 h1         1 QPS       0.022700
     49 H6A          8.7300     2.0600    -1.4500 h1         1 QPS       0.024700
     50 H6AA         9.7020     2.2630     0.0140 h1         1 QPS       0.024700
     51 H7A          6.8880     0.1370    -1.3320 ha         1 QPS       0.200000
     52 HO2A         5.8310     2.2250     2.0040 ho         1 QPS       0.498000
     53 HO3A         8.6250    -0.8410     3.0510 ho         1 QPS       0.443000
     54 HO4A         8.2110     3.3290     1.6250 ho         1 QPS       0.492000
     55 HO6A        10.6560     0.7930    -1.4880 ho         1 QPS       0.444000
     56 H1B          0.4640    -3.0380    -1.7660 h2         1 QPS       0.077700
     57 H2B          2.4750    -3.5490    -0.5070 h1         1 QPS       0.091700
     58 H3B          2.1290    -0.8500     0.8920 h1         1 QPS       0.040700
     59 H4B          4.3000    -1.7800    -1.0820 h1         1 QPS       0.073700
     60 H5B          2.0490     0.2740    -1.4850 h1         1 QPS       0.053700
     61 H6B          4.1630    -0.8020    -3.4560 hc         1 QPS       0.050033
     62 H6BA         2.7850     0.2260    -3.8910 hc         1 QPS       0.050033
     63 H6BB         4.0610     0.8580    -2.8470 hc         1 QPS       0.050033
     64 HN4B         3.9420     0.7470     0.4370 hn         1 QPS       0.432000
     65 HO2B         0.3570    -2.5780     1.2320 ho         1 QPS       0.535000
     66 HO3B         2.9610    -2.8850     1.9450 ho         1 QPS       0.458000
     67 H1C         -5.1170    -1.6650     0.1500 h2         1 QPS       0.085700
     68 H2C         -3.1860    -2.7240     1.1600 h1         1 QPS       0.092700
     69 H3C         -1.7370    -0.0550     0.7780 h1         1 QPS       0.059700
     70 H4C         -1.2870    -2.7650    -0.5530 h1         1 QPS       0.059700
     71 H5C         -2.3270    -0.1270    -1.7280 h1         1 QPS       0.077700
     72 H6C         -0.9850    -1.3850    -3.3770 h1         1 QPS       0.040200
     73 H6CA        -1.8840    -2.8660    -3.0230 h1         1 QPS       0.040200
     74 HO2C        -4.5490    -0.8050     2.3110 ho         1 QPS       0.537000
     75 HO3C        -1.3470    -1.4230     2.6900 ho         1 QPS       0.525000
     76 HO6C        -2.6760    -1.8590    -4.9320 ho         1 QPS       0.507000
     77 H1D         -7.0130     3.5110     1.1300 h2         1 QPS       0.031700
     78 H2D         -8.2610     0.7070     0.7710 h1         1 QPS       0.069700
     79 H3D         -5.5620     1.5980     1.8980 h1         1 QPS       0.055700
     80 H4D         -6.2910     0.0260    -0.6410 h1         1 QPS       0.066700
     81 H5D         -5.1120     2.8350    -0.2690 h1         1 QPS       0.059700
     82 H6D         -4.2670     1.7200    -2.3170 h1         1 QPS       0.045200
     83 H6DA        -5.9120     1.2750    -2.7850 h1         1 QPS       0.045200
     84 HO1D        -8.9470     3.5670    -0.5070 ho         1 QPS       0.527000
     85 HO2D        -8.9610     2.0990     2.6270 ho         1 QPS       0.527000
     86 HO3D        -6.8980    -0.2800     2.7680 ho         1 QPS       0.529000
     87 HO6D        -5.2140     3.1500    -3.9200 ho         1 QPS       0.508000
@<TRIPOS>BOND
     1     1     2 1   
     2     1     7 1   
     3     1    18 1   
     4     1    45 1   
     5     2     3 1   
     6     2     8 1   
     7     2    46 1   
     8     3     4 1   
     9     3     9 1   
    10     3    47 1   
    11     4     5 1   
    12     4    10 1   
    13     4    48 1   
    14     5     6 1   
    15     5     7 2   
    16     6    11 1   
    17     6    49 1   
    18     6    50 1   
    19     7    51 1   
    20     8    52 1   
    21     9    53 1   
    22    10    54 1   
    23    11    55 1   
    24    12    13 1   
    25    12    21 1   
    26    12    30 1   
    27    12    56 1   
    28    13    14 1   
    29    13    19 1   
    30    13    57 1   
    31    14    15 1   
    32    14    20 1   
    33    14    58 1   
    34    15    16 1   
    35    15    18 1   
    36    15    59 1   
    37    16    17 1   
    38    16    21 1   
    39    16    60 1   
    40    17    61 1   
    41    17    62 1   
    42    17    63 1   
    43    18    64 1   
    44    19    65 1   
    45    20    66 1   
    46    22    23 1   
    47    22    31 1   
    48    22    42 1   
    49    22    67 1   
    50    23    24 1   
    51    23    28 1   
    52    23    68 1   
    53    24    25 1   
    54    24    29 1   
    55    24    69 1   
    56    25    26 1   
    57    25    30 1   
    58    25    70 1   
    59    26    27 1   
    60    26    31 1   
    61    26    71 1   
    62    27    32 1   
    63    27    72 1   
    64    27    73 1   
    65    28    74 1   
    66    29    75 1   
    67    32    76 1   
    68    33    34 1   
    69    33    39 1   
    70    33    43 1   
    71    33    77 1   
    72    34    35 1   
    73    34    40 1   
    74    34    78 1   
    75    35    36 1   
    76    35    41 1   
    77    35    79 1   
    78    36    37 1   
    79    36    42 1   
    80    36    80 1   
    81    37    38 1   
    82    37    43 1   
    83    37    81 1   
    84    38    44 1   
    85    38    82 1   
    86    38    83 1   
    87    39    84 1   
    88    40    85 1   
    89    41    86 1   
    90    44    87 1   
@<TRIPOS>SUBSTRUCTURE
     1 QPS         1 TEMP              0 ****  ****    0 ROOT
