@<TRIPOS>MOLECULE
QPS
   87    90     1     0     0
SMALL
abcg2


@<TRIPOS>ATOM
      1 C1A          5.1090     0.2630     0.9320 c6         1 QPS       0.226700
      2 C2A          5.3140     1.2510     2.0720 c6         1 QPS       0.176300
      3 C3A          6.8010     1.3430     2.4100 c6         1 QPS       0.108300
      4 C4A          7.6370     1.8280     1.2140 c6         1 QPS       0.187500
      5 C5A          7.1720     1.2520    -0.0970 c2         1 QPS      -0.140400
      6 C6A          8.0940     1.5170    -1.2510 c3         1 QPS       0.210800
      7 C7A          6.0440     0.5580    -0.2070 c2         1 QPS      -0.135200
      8 O2A          4.8050     2.5000     1.6740 oh         1 QPS      -0.690000
      9 O3A          7.2040     0.0580     2.8250 oh         1 QPS      -0.645000
     10 O4A          7.6410     3.2380     1.0980 oh         1 QPS      -0.700000
     11 O6A          7.6410     0.8770    -2.4170 oh         1 QPS      -0.660000
     12 C1B          0.9950    -2.6370    -0.8770 c6         1 QPS       0.368300
     13 C2B          1.8780    -3.0510     0.2990 c6         1 QPS       0.112300
     14 C3B          2.4820    -1.8150     0.9620 c6         1 QPS       0.110300
     15 C4B          3.2220    -0.9660    -0.0730 c6         1 QPS       0.158500
     16 C5B          2.2960    -0.6720    -1.2640 c6         1 QPS       0.178300
     17 C6B          3.0250    -0.0120    -2.4140 c3         1 QPS      -0.084100
     18 N4B          3.7240     0.2830     0.4680 n7         1 QPS      -0.869400
     19 O2B          1.2000    -3.8720     1.2160 oh         1 QPS      -0.729000
     20 O3B          3.3810    -2.1780     1.9840 oh         1 QPS      -0.661000
     21 O5B          1.7230    -1.8730    -1.7810 os         1 QPS      -0.471000
     22 C1C         -4.1980    -1.5610    -0.6640 c6         1 QPS       0.365300
     23 C2C         -3.6860    -2.5950     0.3390 c6         1 QPS       0.116300
     24 C3C         -2.2040    -2.3500     0.6100 c6         1 QPS       0.134300
     25 C4C         -1.4170    -2.3230    -0.6940 c6         1 QPS       0.166300
     26 C5C         -2.0570    -1.3430    -1.6870 c6         1 QPS       0.147300
     27 C6C         -1.4490    -1.4440    -3.0700 c3         1 QPS       0.162600
     28 O2C         -4.4400    -2.6260     1.5210 oh         1 QPS      -0.724000
     29 O3C         -1.6570    -3.3680     1.4200 oh         1 QPS      -0.729000
     30 O4C         -0.1030    -1.9230    -0.3750 os         1 QPS      -0.502000
     31 O5C         -3.4420    -1.6240    -1.8320 os         1 QPS      -0.452000
     32 O6C         -2.0200    -0.4490    -3.8860 oh         1 QPS      -0.718000
     33 C1D         -6.2040     3.2010     0.4940 c6         1 QPS       0.364300
     34 C2D         -6.5290     2.0740     1.4690 c6         1 QPS       0.112300
     35 C3D         -5.4410     1.0150     1.3790 c6         1 QPS       0.164300
     36 C4D         -5.2450     0.5550    -0.0610 c6         1 QPS       0.156300
     37 C5D         -5.0240     1.7740    -0.9670 c6         1 QPS       0.161300
     38 C6D         -4.9520     1.4060    -2.4330 c3         1 QPS       0.164600
     39 O1D         -7.2370     4.1140     0.5180 oh         1 QPS      -0.706000
     40 O2D         -6.5630     2.5260     2.7990 oh         1 QPS      -0.726000
     41 O3D         -5.7450    -0.1170     2.1600 oh         1 QPS      -0.728000
     42 O4D         -4.1200    -0.2960    -0.0720 os         1 QPS      -0.500000
     43 O5D         -6.1010     2.6720    -0.8060 os         1 QPS      -0.467000
     44 O6D         -4.7000     2.5760    -3.1760 oh         1 QPS      -0.713000
     45 H1A          5.3660    -0.7250     1.3330 h1         1 QPS       0.078700
     46 H2A          4.7780     0.8770     2.9580 h1         1 QPS       0.043700
     47 H3A          6.9320     2.0680     3.2290 h1         1 QPS       0.024700
     48 H4A          8.6670     1.4740     1.3840 h1         1 QPS       0.022700
     49 H6A          8.1750     2.6020    -1.3970 h1         1 QPS       0.024700
     50 H6AA         9.1030     1.1760    -0.9700 h1         1 QPS       0.024700
     51 H7A          5.7630     0.1440    -1.1690 ha         1 QPS       0.200000
     52 HO2A         5.0370     3.1540     2.3400 ho         1 QPS       0.498000
     53 HO3A         8.1130     0.1100     3.1380 ho         1 QPS       0.443000
     54 HO4A         8.2100     3.5920     1.7890 ho         1 QPS       0.492000
     55 HO6A         8.2230     1.1310    -3.1380 ho         1 QPS       0.444000
     56 H1B          0.6570    -3.5250    -1.4250 h2         1 QPS       0.077700
     57 H2B          2.6990    -3.6540    -0.1060 h1         1 QPS       0.091700
     58 H3B          1.6630    -1.2040     1.3750 h1         1 QPS       0.040700
     59 H4B          4.0730    -1.5490    -0.4510 h1         1 QPS       0.073700
     60 H5B          1.4960    -0.0020    -0.9210 h1         1 QPS       0.053700
     61 H6B          3.8200    -0.6550    -2.7960 hc         1 QPS       0.050033
     62 H6BA         2.3400     0.2120    -3.2330 hc         1 QPS       0.050033
     63 H6BB         3.4750     0.9210    -2.0810 hc         1 QPS       0.050033
     64 HN4B         3.1080     0.6180     1.1980 hn         1 QPS       0.432000
     65 HO2B         0.3200    -3.5060     1.4010 ho         1 QPS       0.535000
     66 HO3B         2.9000    -2.7230     2.6160 ho         1 QPS       0.458000
     67 H1C         -5.2290    -1.7910    -0.9550 h2         1 QPS       0.085700
     68 H2C         -3.7940    -3.5810    -0.1260 h1         1 QPS       0.092700
     69 H3C         -2.0880    -1.3710     1.0980 h1         1 QPS       0.059700
     70 H4C         -1.4210    -3.3320    -1.1320 h1         1 QPS       0.059700
     71 H5C         -1.9090    -0.3220    -1.3120 h1         1 QPS       0.077700
     72 H6C         -0.3650    -1.3180    -2.9870 h1         1 QPS       0.040200
     73 H6CA        -1.6310    -2.4540    -3.4660 h1         1 QPS       0.040200
     74 HO2C        -4.6580    -1.7210     1.8000 ho         1 QPS       0.537000
     75 HO3C        -2.0780    -3.3280     2.2860 ho         1 QPS       0.525000
     76 HO6C        -1.5710    -0.4690    -4.7360 ho         1 QPS       0.507000
     77 H1D         -5.2440     3.6660     0.7780 h2         1 QPS       0.031700
     78 H2D         -7.4900     1.6290     1.1680 h1         1 QPS       0.069700
     79 H3D         -4.4950     1.4710     1.7130 h1         1 QPS       0.055700
     80 H4D         -6.1440     0.0180    -0.3970 h1         1 QPS       0.066700
     81 H5D         -4.0760     2.2540    -0.6710 h1         1 QPS       0.059700
     82 H6D         -4.1630     0.6640    -2.5770 h1         1 QPS       0.045200
     83 H6DA        -5.9010     0.9340    -2.7260 h1         1 QPS       0.045200
     84 HO1D        -6.9330     4.9570     0.1640 ho         1 QPS       0.527000
     85 HO2D        -7.3450     3.0750     2.9170 ho         1 QPS       0.527000
     86 HO3D        -5.7500     0.1400     3.0880 ho         1 QPS       0.529000
     87 HO6D        -4.4920     2.3150    -4.0770 ho         1 QPS       0.508000
@<TRIPOS>BOND
     1     1     2 1   
     2     1     7 1   
     3     1    18 1   
     4     1    45 1   
     5     2     3 1   
     6     2     8 1   
     7     2    46 1   
     8     3     4 1   
     9     3     9 1   
    10     3    47 1   
    11     4     5 1   
    12     4    10 1   
    13     4    48 1   
    14     5     6 1   
    15     5     7 2   
    16     6    11 1   
    17     6    49 1   
    18     6    50 1   
    19     7    51 1   
    20     8    52 1   
    21     9    53 1   
    22    10    54 1   
    23    11    55 1   
    24    12    13 1   
    25    12    21 1   
    26    12    30 1   
    27    12    56 1   
    28    13    14 1   
    29    13    19 1   
    30    13    57 1   
    31    14    15 1   
    32    14    20 1   
    33    14    58 1   
    34    15    16 1   
    35    15    18 1   
    36    15    59 1   
    37    16    17 1   
    38    16    21 1   
    39    16    60 1   
    40    17    61 1   
    41    17    62 1   
    42    17    63 1   
    43    18    64 1   
    44    19    65 1   
    45    20    66 1   
    46    22    23 1   
    47    22    31 1   
    48    22    42 1   
    49    22    67 1   
    50    23    24 1   
    51    23    28 1   
    52    23    68 1   
    53    24    25 1   
    54    24    29 1   
    55    24    69 1   
    56    25    26 1   
    57    25    30 1   
    58    25    70 1   
    59    26    27 1   
    60    26    31 1   
    61    26    71 1   
    62    27    32 1   
    63    27    72 1   
    64    27    73 1   
    65    28    74 1   
    66    29    75 1   
    67    32    76 1   
    68    33    34 1   
    69    33    39 1   
    70    33    43 1   
    71    33    77 1   
    72    34    35 1   
    73    34    40 1   
    74    34    78 1   
    75    35    36 1   
    76    35    41 1   
    77    35    79 1   
    78    36    37 1   
    79    36    42 1   
    80    36    80 1   
    81    37    38 1   
    82    37    43 1   
    83    37    81 1   
    84    38    44 1   
    85    38    82 1   
    86    38    83 1   
    87    39    84 1   
    88    40    85 1   
    89    41    86 1   
    90    44    87 1   
@<TRIPOS>SUBSTRUCTURE
     1 QPS         1 TEMP              0 ****  ****    0 ROOT
