@<TRIPOS>MOLECULE
QPU
   67    69     1     0     0
SMALL
No Charge or Current Charge


@<TRIPOS>ATOM
      1 C1A        148.6880    28.8660   -11.0430 c6         1 QPU       0.142500
      2 C2A        149.4710    28.4390   -12.3380 c6         1 QPU       0.107300
      3 C3A        148.9060    27.1070   -12.9120 c6         1 QPU       0.096300
      4 C4A        148.9750    25.9700   -11.8500 c6         1 QPU       0.178300
      5 C5A        148.1910    26.3620   -10.5620 c6         1 QPU      -0.091700
      6 C6A        148.1880    25.2270    -9.4910 c3         1 QPU      -0.075100
      7 C7A        148.7270    27.7120    -9.9820 c6         1 QPU       0.173300
      8 O2A        149.4380    29.4560   -13.3630 oh         1 QPU      -0.737000
      9 O3A        149.6380    26.7350   -14.0930 oh         1 QPU      -0.674000
     10 O4A        148.4520    24.7730   -12.4400 oh         1 QPU      -0.721000
     11 O6A        150.0650    27.5510    -9.4760 oh         1 QPU      -0.659000
     12 C1B        145.4900    33.1270   -12.2120 c6         1 QPU       0.361300
     13 C2B        146.1080    32.3320   -13.4110 c6         1 QPU       0.115300
     14 C3B        146.2880    30.8420   -13.0040 c6         1 QPU       0.122300
     15 C4B        147.1140    30.7330   -11.6880 c6         1 QPU       0.173500
     16 C5B        146.4150    31.5790   -10.5740 c6         1 QPU       0.171300
     17 C6B        147.2220    31.6300    -9.2530 c3         1 QPU      -0.088100
     18 N4B        147.2790    29.2960   -11.3180 n7         1 QPU      -0.912400
     19 O2B        145.3220    32.4260   -14.6270 oh         1 QPU      -0.734000
     20 O3B        146.9210    30.1060   -14.0690 oh         1 QPU      -0.695000
     21 O5B        146.2540    32.9550   -11.0050 os         1 QPU      -0.480000
     22 C1C        140.3100    34.5490   -12.3220 c6         1 QPU       0.128600
     23 C2C        140.9160    33.9110   -13.6080 c6         1 QPU       0.097300
     24 C3C        142.0500    32.9200   -13.2150 c6         1 QPU       0.131300
     25 C4C        143.0920    33.6360   -12.3100 c6         1 QPU       0.161300
     26 C5C        142.3800    34.2590   -11.0720 c6         1 QPU       0.106300
     27 C6C        143.3360    35.0610   -10.1340 c3         1 QPU       0.171600
     28 O3C        142.6600    32.3680   -14.3960 oh         1 QPU      -0.732000
     29 O4C        144.1420    32.7180   -11.9240 os         1 QPU      -0.502000
     30 O5C        141.3520    35.1730   -11.5310 os         1 QPU      -0.445000
     31 O6C        144.2660    34.2220    -9.4200 oh         1 QPU      -0.730000
     32 H1A        149.2260    29.7120   -10.5870 h1         1 QPU       0.082700
     33 H2A        150.5150    28.2550   -12.0410 h1         1 QPU       0.082700
     34 H3A        147.8500    27.2670   -13.1750 h1         1 QPU       0.045700
     35 H4A        150.0310    25.8130   -11.5820 h1         1 QPU       0.036700
     36 H5A        147.1370    26.5090   -10.8340 hc         1 QPU       0.067700
     37 H6A        149.2060    24.9220    -9.2180 hc         1 QPU       0.043033
     38 H6AA       147.6750    25.5470    -8.5760 hc         1 QPU       0.043033
     39 H6AB       147.6670    24.3350    -9.8580 hc         1 QPU       0.043033
     40 H7A        148.0630    28.0140    -9.1560 h1         1 QPU       0.089700
     41 HO2A       148.4720    29.6740   -13.5210 ho         1 QPU       0.532000
     42 HO3A       149.9110    27.5940   -14.4950 ho         1 QPU       0.466000
     43 HO4A       148.7540    24.8280   -13.3790 ho         1 QPU       0.521000
     44 HO6A       150.0030    26.9710    -8.6860 ho         1 QPU       0.441000
     45 H1B        145.5110    34.1980   -12.4700 h2         1 QPU       0.082700
     46 H2B        147.1100    32.7520   -13.5870 h1         1 QPU       0.095700
     47 H3B        145.2890    30.4210   -12.8110 h1         1 QPU       0.058700
     48 H4B        148.0990    31.1870   -11.8740 h1         1 QPU       0.068700
     49 H5B        145.4250    31.1500   -10.3570 h1         1 QPU       0.065700
     50 H6B        148.2310    32.0250    -9.4190 hc         1 QPU       0.053367
     51 H6BA       146.7250    32.2690    -8.5140 hc         1 QPU       0.053367
     52 H6BB       147.3190    30.6320    -8.8110 hc         1 QPU       0.053367
     53 HN4B       146.8930    28.7240   -12.0800 hn         1 QPU       0.440000
     54 HO2B       144.3490    32.3650   -14.3760 ho         1 QPU       0.543000
     55 HO3B       146.4920    30.4420   -14.8930 ho         1 QPU       0.477000
     56 H1C        139.5710    35.3140   -12.5980 h1         1 QPU       0.060200
     57 H1CA       139.8030    33.7870   -11.7120 h1         1 QPU       0.060200
     58 H2C        141.3690    34.7280   -14.1930 h1         1 QPU       0.102700
     59 H3C        141.6020    32.1060   -12.6240 h1         1 QPU       0.045700
     60 H4C        143.5230    34.4600   -12.8990 h1         1 QPU       0.065700
     61 H5C        141.9040    33.4640   -10.4790 h1         1 QPU       0.064700
     62 H6C        143.8770    35.8000   -10.7420 h1         1 QPU       0.054200
     63 H6CA       142.7180    35.6200    -9.4190 h1         1 QPU       0.054200
     64 HO3C       141.9090    32.2370   -15.0270 ho         1 QPU       0.527000
     65 HO6C       144.7530    33.6810   -10.0960 ho         1 QPU       0.528000
     66 O2C        139.9120    33.2400   -14.4040 oh         1 QPU      -0.708000
     67 HO2C       139.3780    32.6700   -13.8020 ho         1 QPU       0.501000
@<TRIPOS>BOND
     1     1     2 1   
     2     1     7 1   
     3     1    18 1   
     4     1    32 1   
     5     2     3 1   
     6     2     8 1   
     7     2    33 1   
     8     3     4 1   
     9     3     9 1   
    10     3    34 1   
    11     4     5 1   
    12     4    10 1   
    13     4    35 1   
    14     5     6 1   
    15     5     7 1   
    16     5    36 1   
    17     6    37 1   
    18     6    38 1   
    19     6    39 1   
    20     7    11 1   
    21     7    40 1   
    22     8    41 1   
    23     9    42 1   
    24    10    43 1   
    25    11    44 1   
    26    12    13 1   
    27    12    21 1   
    28    12    29 1   
    29    12    45 1   
    30    13    14 1   
    31    13    19 1   
    32    13    46 1   
    33    14    15 1   
    34    14    20 1   
    35    14    47 1   
    36    15    16 1   
    37    15    18 1   
    38    15    48 1   
    39    16    17 1   
    40    16    21 1   
    41    16    49 1   
    42    17    50 1   
    43    17    51 1   
    44    17    52 1   
    45    18    53 1   
    46    19    54 1   
    47    20    55 1   
    48    22    23 1   
    49    22    30 1   
    50    22    56 1   
    51    22    57 1   
    52    23    24 1   
    53    23    58 1   
    54    23    66 1   
    55    24    25 1   
    56    24    28 1   
    57    24    59 1   
    58    25    26 1   
    59    25    29 1   
    60    25    60 1   
    61    26    27 1   
    62    26    30 1   
    63    26    61 1   
    64    27    31 1   
    65    27    62 1   
    66    27    63 1   
    67    28    64 1   
    68    31    65 1   
    69    66    67 1   
@<TRIPOS>SUBSTRUCTURE
     1 QPU         1 TEMP              0 ****  ****    0 ROOT
