@<TRIPOS>MOLECULE
QPU
   67    69     1     0     0
SMALL
abcg2


@<TRIPOS>ATOM
      1 C1A        148.6380    28.9480   -11.0830 c6         1 QPU       0.142500
      2 C2A        149.4390    28.3760   -12.2670 c6         1 QPU       0.107300
      3 C3A        148.8120    27.0840   -12.7860 c6         1 QPU       0.096300
      4 C4A        148.7120    26.0370   -11.6880 c6         1 QPU       0.178300
      5 C5A        147.9240    26.5670   -10.4890 c6         1 QPU      -0.091700
      6 C6A        147.7900    25.5270    -9.3790 c3         1 QPU      -0.075100
      7 C7A        148.5270    27.8830    -9.9740 c6         1 QPU       0.173300
      8 O2A        149.6320    29.2990   -13.3350 oh         1 QPU      -0.737000
      9 O3A        149.5970    26.5330   -13.8440 oh         1 QPU      -0.674000
     10 O4A        148.0650    24.8600   -12.1750 oh         1 QPU      -0.721000
     11 O6A        149.7810    27.7050    -9.3030 oh         1 QPU      -0.659000
     12 C1B        145.5570    33.2000   -12.3570 c6         1 QPU       0.361300
     13 C2B        146.2500    32.4520   -13.4930 c6         1 QPU       0.115300
     14 C3B        146.4220    30.9840   -13.1310 c6         1 QPU       0.122300
     15 C4B        147.1870    30.8510   -11.8230 c6         1 QPU       0.173500
     16 C5B        146.4690    31.6580   -10.7290 c6         1 QPU       0.171300
     17 C6B        147.2430    31.7180    -9.4310 c3         1 QPU      -0.088100
     18 N4B        147.3090    29.4510   -11.4230 n7         1 QPU      -0.912400
     19 O2B        145.5740    32.6120   -14.7270 oh         1 QPU      -0.734000
     20 O3B        147.1480    30.3000   -14.1560 oh         1 QPU      -0.695000
     21 O5B        146.2740    33.0360   -11.1510 os         1 QPU      -0.480000
     22 C1C        140.3350    34.0980   -12.0050 c6         1 QPU       0.128600
     23 C2C        140.8740    33.8220   -13.4040 c6         1 QPU       0.097300
     24 C3C        142.1470    32.9910   -13.3070 c6         1 QPU       0.131300
     25 C4C        143.1450    33.6300   -12.3530 c6         1 QPU       0.161300
     26 C5C        142.4850    33.9220   -10.9970 c6         1 QPU       0.106300
     27 C6C        143.3640    34.7040   -10.0190 c3         1 QPU       0.171600
     28 O3C        142.7760    32.8550   -14.5800 oh         1 QPU      -0.732000
     29 O4C        144.2380    32.7190   -12.2170 os         1 QPU      -0.502000
     30 O5C        141.3280    34.7310   -11.2080 os         1 QPU      -0.445000
     31 O6C        144.3010    33.9010    -9.3200 oh         1 QPU      -0.730000
     32 H1A        149.2040    29.7820   -10.6670 h1         1 QPU       0.082700
     33 H2A        150.4460    28.1390   -11.9150 h1         1 QPU       0.082700
     34 H3A        147.8010    27.2880   -13.1620 h1         1 QPU       0.045700
     35 H4A        149.7330    25.7740   -11.3770 h1         1 QPU       0.036700
     36 H5A        146.9200    26.8120   -10.8510 hc         1 QPU       0.067700
     37 H6A        148.7700    25.2190    -9.0100 hc         1 QPU       0.043033
     38 H6AA       147.2270    25.9390    -8.5400 hc         1 QPU       0.043033
     39 H6AB       147.2690    24.6410    -9.7400 hc         1 QPU       0.043033
     40 H7A        147.8590    28.2850    -9.2110 h1         1 QPU       0.089700
     41 HO2A       148.7650    29.6070   -13.6620 ho         1 QPU       0.532000
     42 HO3A       149.8110    27.2620   -14.4430 ho         1 QPU       0.466000
     43 HO4A       148.5400    24.5800   -12.9690 ho         1 QPU       0.521000
     44 HO6A       150.3670    27.1510    -9.8320 ho         1 QPU       0.441000
     45 H1B        145.5500    34.2730   -12.5580 h2         1 QPU       0.082700
     46 H2B        147.2420    32.8900   -13.6250 h1         1 QPU       0.095700
     47 H3B        145.4340    30.5200   -13.0260 h1         1 QPU       0.058700
     48 H4B        148.1790    31.2920   -11.9680 h1         1 QPU       0.068700
     49 H5B        145.4870    31.2080   -10.5590 h1         1 QPU       0.065700
     50 H6B        148.2180    32.1830    -9.5890 hc         1 QPU       0.053367
     51 H6BA       146.6950    32.2940    -8.6850 hc         1 QPU       0.053367
     52 H6BB       147.3930    30.7110    -9.0430 hc         1 QPU       0.053367
     53 HN4B       146.8210    28.8470   -12.0670 hn         1 QPU       0.440000
     54 HO2B       144.6100    32.5090   -14.5940 ho         1 QPU       0.543000
     55 HO3B       146.7620    30.5420   -15.0090 ho         1 QPU       0.477000
     56 H1C        139.4850    34.7770   -12.0520 h1         1 QPU       0.060200
     57 H1CA       140.0140    33.1580   -11.5370 h1         1 QPU       0.060200
     58 H2C        141.1090    34.7690   -13.8940 h1         1 QPU       0.102700
     59 H3C        141.8880    31.9980   -12.9160 h1         1 QPU       0.045700
     60 H4C        143.5000    34.5710   -12.7840 h1         1 QPU       0.065700
     61 H5C        142.1960    32.9710   -10.5300 h1         1 QPU       0.064700
     62 H6C        143.8610    35.5270   -10.5440 h1         1 QPU       0.054200
     63 H6CA       142.6990    35.1370    -9.2700 h1         1 QPU       0.054200
     64 HO3C       142.1550    32.4220   -15.1810 ho         1 QPU       0.527000
     65 HO6C       145.0360    33.6750    -9.9170 ho         1 QPU       0.528000
     66 O2C        139.9040    33.1910   -14.2350 oh         1 QPU      -0.708000
     67 HO2C       139.6370    32.3570   -13.8220 ho         1 QPU       0.501000
@<TRIPOS>BOND
     1     1     2 1   
     2     1     7 1   
     3     1    18 1   
     4     1    32 1   
     5     2     3 1   
     6     2     8 1   
     7     2    33 1   
     8     3     4 1   
     9     3     9 1   
    10     3    34 1   
    11     4     5 1   
    12     4    10 1   
    13     4    35 1   
    14     5     6 1   
    15     5     7 1   
    16     5    36 1   
    17     6    37 1   
    18     6    38 1   
    19     6    39 1   
    20     7    11 1   
    21     7    40 1   
    22     8    41 1   
    23     9    42 1   
    24    10    43 1   
    25    11    44 1   
    26    12    13 1   
    27    12    21 1   
    28    12    29 1   
    29    12    45 1   
    30    13    14 1   
    31    13    19 1   
    32    13    46 1   
    33    14    15 1   
    34    14    20 1   
    35    14    47 1   
    36    15    16 1   
    37    15    18 1   
    38    15    48 1   
    39    16    17 1   
    40    16    21 1   
    41    16    49 1   
    42    17    50 1   
    43    17    51 1   
    44    17    52 1   
    45    18    53 1   
    46    19    54 1   
    47    20    55 1   
    48    22    23 1   
    49    22    30 1   
    50    22    56 1   
    51    22    57 1   
    52    23    24 1   
    53    23    58 1   
    54    23    66 1   
    55    24    25 1   
    56    24    28 1   
    57    24    59 1   
    58    25    26 1   
    59    25    29 1   
    60    25    60 1   
    61    26    27 1   
    62    26    30 1   
    63    26    61 1   
    64    27    31 1   
    65    27    62 1   
    66    27    63 1   
    67    28    64 1   
    68    31    65 1   
    69    66    67 1   
@<TRIPOS>SUBSTRUCTURE
     1 QPU         1 TEMP              0 ****  ****    0 ROOT
