@<TRIPOS>MOLECULE
QPV
   49    51     1     0     0
SMALL
bcc


@<TRIPOS>ATOM
      1 C2          -4.5450    -0.0280    -0.5110 c          1 QPV       0.682100
      2 C4          -5.2830     1.9990     0.6570 c3         1 QPV       0.104000
      3 C5          -5.1170     2.6210     2.0340 c3         1 QPV      -0.094400
      4 C6          -5.7690     3.9930     2.1150 c3         1 QPV      -0.087100
      5 C7          -3.7890    -1.3500    -0.3610 cy         1 QPV      -0.104700
      6 C8          -4.3590    -2.2670     0.7530 cy         1 QPV      -0.075400
      7 C11         -2.3200    -1.0190    -0.3440 ca         1 QPV      -0.095300
      8 C12         -1.5860    -0.9770     0.8370 ca         1 QPV      -0.091000
      9 C16          2.6700     0.1900    -1.2650 c          1 QPV       0.687700
     10 C18          4.0530     0.5270    -0.8020 ca         1 QPV      -0.146600
     11 C19          5.1210     0.1770    -1.6240 ca         1 QPV      -0.073000
     12 C21          6.6670     1.1530    -0.0570 ca         1 QPV      -0.099000
     13 C24          4.2920     1.2080     0.3890 ca         1 QPV      -0.102000
     14 O1          -4.9430     0.3770    -1.5940 o          1 QPV      -0.604100
     15 N3          -4.6790     0.6830     0.6160 ns         1 QPV      -0.571900
     16 C9          -5.2030    -2.9780    -0.3170 cy         1 QPV      -0.092400
     17 C10         -4.2650    -2.4010    -1.3890 cy         1 QPV      -0.075400
     18 C13         -0.2400    -0.6550     0.8270 ca         1 QPV      -0.166500
     19 C14          0.4160    -0.3610    -0.3690 ca         1 QPV       0.073600
     20 N15          1.7780    -0.0500    -0.2750 ns         1 QPV      -0.466100
     21 O17          2.4100     0.1320    -2.4540 o          1 QPV      -0.573100
     22 C20          6.4180     0.4810    -1.2450 ca         1 QPV      -0.127000
     23 C22          5.5950     1.5150     0.7440 ca         1 QPV       0.017400
     24 CL           5.8860     2.3790     2.2160 cl         1 QPV      -0.103400
     25 C25         -0.3110    -0.3910    -1.5600 ca         1 QPV      -0.166500
     26 C26         -1.6600    -0.7150    -1.5300 ca         1 QPV      -0.091000
     27 H1          -6.3460     1.9350     0.4060 h1         1 QPV       0.051200
     28 H2          -4.8170     2.6390    -0.0980 h1         1 QPV       0.051200
     29 H3          -5.5590     1.9610     2.7870 hc         1 QPV       0.040700
     30 H4          -4.0530     2.7010     2.2710 hc         1 QPV       0.040700
     31 H5          -5.3250     4.6870     1.4000 hc         1 QPV       0.036700
     32 H6          -6.8380     3.9360     1.9020 hc         1 QPV       0.036700
     33 H7          -5.6520     4.4230     3.1100 hc         1 QPV       0.036700
     34 H8          -3.5840    -2.9210     1.1550 hc         1 QPV       0.059450
     35 H9          -4.8830    -1.8080     1.5920 hc         1 QPV       0.059450
     36 H10         -2.0570    -1.2070     1.7850 ha         1 QPV       0.137000
     37 H11          4.9380    -0.3420    -2.5550 ha         1 QPV       0.159000
     38 H12          7.6790     1.3940     0.2370 ha         1 QPV       0.151000
     39 H13          3.4800     1.5310     1.0280 ha         1 QPV       0.147000
     40 H14         -4.3560     0.2900     1.4850 hn         1 QPV       0.312500
     41 H15         -5.2770    -4.0630    -0.2490 hc         1 QPV       0.054200
     42 H16         -6.2100    -2.5660    -0.3860 hc         1 QPV       0.054200
     43 H17         -4.7010    -2.0310    -2.3160 hc         1 QPV       0.059450
     44 H18         -3.4580    -3.0920    -1.6310 hc         1 QPV       0.059450
     45 H19          0.3090    -0.6340     1.7610 ha         1 QPV       0.147500
     46 H20          2.1440    -0.0820     0.6650 hn         1 QPV       0.320500
     47 H21          7.2470     0.1960    -1.8780 ha         1 QPV       0.144000
     48 H22          0.1540    -0.1690    -2.5050 ha         1 QPV       0.147500
     49 H23         -2.2050    -0.7350    -2.4660 ha         1 QPV       0.137000
@<TRIPOS>BOND
     1     1     5 1   
     2     1    14 2   
     3     1    15 1   
     4     2     3 1   
     5     2    15 1   
     6     2    27 1   
     7     2    28 1   
     8     3     4 1   
     9     3    29 1   
    10     3    30 1   
    11     4    31 1   
    12     4    32 1   
    13     4    33 1   
    14     5     6 1   
    15     5     7 1   
    16     5    17 1   
    17     6    16 1   
    18     6    34 1   
    19     6    35 1   
    20     7     8 ar  
    21     7    26 ar  
    22     8    18 ar  
    23     8    36 1   
    24     9    10 1   
    25     9    20 1   
    26     9    21 2   
    27    10    11 ar  
    28    10    13 ar  
    29    11    22 ar  
    30    11    37 1   
    31    12    22 ar  
    32    12    23 ar  
    33    12    38 1   
    34    13    23 ar  
    35    13    39 1   
    36    15    40 1   
    37    16    17 1   
    38    16    41 1   
    39    16    42 1   
    40    17    43 1   
    41    17    44 1   
    42    18    19 ar  
    43    18    45 1   
    44    19    20 1   
    45    19    25 ar  
    46    20    46 1   
    47    22    47 1   
    48    23    24 1   
    49    25    26 ar  
    50    25    48 1   
    51    26    49 1   
@<TRIPOS>SUBSTRUCTURE
     1 QPV         1 TEMP              0 ****  ****    0 ROOT
