@<TRIPOS>MOLECULE
QPV
   49    51     1     0     0
SMALL
No Charge or Current Charge


@<TRIPOS>ATOM
      1 C2          -4.9440    -0.3600    -0.4260 c          1 QPV       0.615100
      2 C4          -5.2170     1.9220     0.6150 c3         1 QPV       0.104000
      3 C5          -4.4580     2.8250     1.6050 c3         1 QPV      -0.094400
      4 C6          -5.1520     4.1810     1.8340 c3         1 QPV      -0.087100
      5 C7          -3.8780    -1.5630    -0.3390 cy         1 QPV      -0.104700
      6 C8          -4.5970    -2.3660     0.8130 cy         1 QPV      -0.075400
      7 C11         -2.4010    -1.1700    -0.3340 ca         1 QPV      -0.095300
      8 C12         -1.6770    -1.1010     0.8710 ca         1 QPV      -0.073000
      9 C16          2.6500     0.2620    -1.2420 c          1 QPV       0.620700
     10 C18          4.0260     0.6470    -0.7240 ca         1 QPV      -0.146600
     11 C19          5.0550     0.9560    -1.6470 ca         1 QPV      -0.055000
     12 C21          6.6180     1.3750     0.1720 ca         1 QPV      -0.081000
     13 C24          4.3250     0.7110     0.6620 ca         1 QPV      -0.084000
     14 O1          -5.9650    -0.1690    -1.0810 o          1 QPV      -0.604100
     15 N3          -4.5290     0.6470     0.4210 ns         1 QPV      -0.504900
     16 C9          -5.4930    -3.0730    -0.2710 cy         1 QPV      -0.092400
     17 C10         -4.5100    -2.5550    -1.3880 cy         1 QPV      -0.075400
     18 C13         -0.3240    -0.7230     0.8610 ca         1 QPV      -0.148500
     19 C14          0.3290    -0.4090    -0.3450 ca         1 QPV      -0.019000
     20 N15          1.6990    -0.0320    -0.2700 ns         1 QPV      -0.140000
     21 O17          2.4210     0.2150    -2.4460 o          1 QPV      -0.573100
     22 C20          6.3390     1.3160    -1.2020 ca         1 QPV      -0.109000
     23 C22          5.6110     1.0720     1.1000 ca         1 QPV       0.109000
     24 Cl           5.9590     1.1450     2.8230 cl         1 QPV      -0.195000
     25 C25         -0.4030    -0.4750    -1.5510 ca         1 QPV      -0.148500
     26 C26         -1.7570    -0.8530    -1.5420 ca         1 QPV      -0.073000
     27 H1          -6.2280     1.7250     0.9950 h1         1 QPV       0.051200
     28 H2          -5.3030     2.4300    -0.3550 h1         1 QPV       0.051200
     29 H3          -4.3600     2.3060     2.5670 hc         1 QPV       0.040700
     30 H4          -3.4420     3.0020     1.2290 hc         1 QPV       0.040700
     31 H5          -5.2350     4.7380     0.8940 hc         1 QPV       0.036700
     32 H6          -6.1600     4.0370     2.2420 hc         1 QPV       0.036700
     33 H7          -4.5780     4.7890     2.5440 hc         1 QPV       0.036700
     34 H8          -3.9320    -3.0640     1.3330 hc         1 QPV       0.059450
     35 H9          -5.1330    -1.7940     1.5800 hc         1 QPV       0.059450
     36 H10         -2.1580    -1.3390     1.8170 ha         1 QPV       0.119000
     37 H11          4.8630     0.9180    -2.7180 ha         1 QPV       0.141000
     38 H12          7.6100     1.6530     0.5180 ha         1 QPV       0.133000
     39 H13          3.5760     0.4850     1.4170 ha         1 QPV       0.129000
     40 H14         -3.6630     0.4810     0.9200 hn         1 QPV       0.312500
     41 H15         -5.5610    -4.1620    -0.1800 hc         1 QPV       0.054200
     42 H16         -6.5130    -2.6790    -0.3430 hc         1 QPV       0.054200
     43 H17         -4.9660    -2.1310    -2.2890 hc         1 QPV       0.059450
     44 H18         -3.8040    -3.3240    -1.7210 hc         1 QPV       0.059450
     45 H19          0.2190    -0.6750     1.8030 ha         1 QPV       0.129500
     46 H20          2.0450     0.0380     0.6770 hn         1 QPV       0.154000
     47 H21          7.1180     1.5510    -1.9250 ha         1 QPV       0.126000
     48 H22          0.0520    -0.2320    -2.5060 ha         1 QPV       0.129500
     49 H23         -2.3080    -0.8940    -2.4790 ha         1 QPV       0.119000
@<TRIPOS>BOND
     1     1     5 1   
     2     1    14 2   
     3     1    15 1   
     4     2     3 1   
     5     2    15 1   
     6     2    27 1   
     7     2    28 1   
     8     3     4 1   
     9     3    29 1   
    10     3    30 1   
    11     4    31 1   
    12     4    32 1   
    13     4    33 1   
    14     5     6 1   
    15     5     7 1   
    16     5    17 1   
    17     6    16 1   
    18     6    34 1   
    19     6    35 1   
    20     7     8 ar  
    21     7    26 ar  
    22     8    18 ar  
    23     8    36 1   
    24     9    10 1   
    25     9    20 1   
    26     9    21 2   
    27    10    11 ar  
    28    10    13 ar  
    29    11    22 ar  
    30    11    37 1   
    31    12    22 ar  
    32    12    23 ar  
    33    12    38 1   
    34    13    23 ar  
    35    13    39 1   
    36    15    40 1   
    37    16    17 1   
    38    16    41 1   
    39    16    42 1   
    40    17    43 1   
    41    17    44 1   
    42    18    19 ar  
    43    18    45 1   
    44    19    20 1   
    45    19    25 ar  
    46    20    46 1   
    47    22    47 1   
    48    23    24 1   
    49    25    26 ar  
    50    25    48 1   
    51    26    49 1   
@<TRIPOS>SUBSTRUCTURE
     1 QPV         1 TEMP              0 ****  ****    0 ROOT
