@<TRIPOS>MOLECULE
QPW
   60    63     1     0     0
SMALL
abcg2


@<TRIPOS>ATOM
      1 N3           9.4700   -15.9360    11.0410 n          1 QPW      -0.407800
      2 C4           9.1620   -14.6010    10.5490 c3         1 QPW       0.101000
      3 C5           7.4650   -12.7600    10.2910 c3         1 QPW      -0.091100
      4 C6           7.7080   -14.1890    10.7540 c3         1 QPW      -0.096400
      5 C7          12.3680   -13.6940    13.8740 ca         1 QPW       0.133400
      6 C8          11.4230   -12.9480    14.5620 ca         1 QPW      -0.021900
      7 C13         10.6050   -15.0040    12.9910 ca         1 QPW      -0.103600
      8 C17         15.6860   -11.5030    15.1970 c3         1 QPW       0.293100
      9 C20         15.5800    -9.8110    13.3400 ca         1 QPW      -0.093000
     10 C21         16.7860   -11.8500    12.9580 ca         1 QPW      -0.078000
     11 C22         15.9150    -9.3960    12.0620 ca         1 QPW       0.119000
     12 C24         16.6840   -10.1840    11.2200 ca         1 QPW      -0.096000
     13 C26         11.9690   -14.7570    13.0730 ca         1 QPW      -0.073000
     14 C28         10.2200   -19.6230     8.8530 c5         1 QPW       0.151600
     15 C27          9.4460   -18.4850     8.1800 c5         1 QPW      -0.112400
     16 O29         11.3240   -19.0280     9.5230 os         1 QPW      -0.448000
     17 C30         11.3460   -17.6390     9.2540 c5         1 QPW       0.162600
     18 C1           9.9050   -17.2510     8.9600 c5         1 QPW      -0.119700
     19 C2           9.0400   -17.0470    10.2060 c3         1 QPW       0.101000
     20 C16         10.1640   -16.1810    12.1710 c          1 QPW       0.610700
     21 O18         10.4700   -17.3080    12.5400 o          1 QPW      -0.578100
     22 C14          9.6640   -14.2480    13.6990 ca         1 QPW      -0.188000
     23 C11         10.0600   -13.1860    14.5140 ca         1 QPW       0.171100
     24 O31          9.2520   -12.3980    15.2350 os         1 QPW      -0.325100
     25 C32          7.8540   -12.6020    15.1250 c3         1 QPW       0.146900
     26 O10         12.0880   -11.9820    15.2590 os         1 QPW      -0.289700
     27 N9          13.6210   -13.1830    14.1470 nc         1 QPW      -0.653100
     28 C12         13.3870   -12.1960    14.9560 cd         1 QPW       0.775500
     29 N15         14.2840   -11.3910    15.5240 nu         1 QPW      -0.895400
     30 C19         16.0210   -11.0500    13.7960 ca         1 QPW      -0.103300
     31 C23         17.1190   -11.4170    11.6810 ca         1 QPW      -0.102000
     32 H1           9.3990   -14.5650     9.4820 h1         1 QPW       0.053700
     33 H2           9.8240   -13.8810    11.0280 h1         1 QPW       0.053700
     34 H3           6.4210   -12.4790    10.4210 hc         1 QPW       0.035700
     35 H4           8.0720   -12.0520    10.8580 hc         1 QPW       0.035700
     36 H5           7.7120   -12.6360     9.2350 hc         1 QPW       0.035700
     37 H6           7.4420   -14.2870    11.8080 hc         1 QPW       0.042700
     38 H7           7.0480   -14.8670    10.2070 hc         1 QPW       0.042700
     39 H8          16.0150   -12.5340    15.3380 h1         1 QPW       0.065700
     40 H9          16.2270   -10.8970    15.9230 h1         1 QPW       0.065700
     41 H10         14.9760    -9.1750    13.9750 ha         1 QPW       0.124000
     42 H11         17.1220   -12.8200    13.3010 ha         1 QPW       0.123000
     43 H12         16.9370    -9.8470    10.2240 ha         1 QPW       0.129000
     44 H13         12.6890   -15.3520    12.5270 ha         1 QPW       0.145000
     45 H14          9.6020   -20.1520     9.5850 h1         1 QPW       0.043700
     46 H15         10.5690   -20.3600     8.1240 h1         1 QPW       0.043700
     47 H16          9.7260   -18.3890     7.1300 hc         1 QPW       0.052200
     48 H17          8.3670   -18.6410     8.2180 hc         1 QPW       0.052200
     49 H18         11.9730   -17.4160     8.3800 h1         1 QPW       0.047700
     50 H19         11.7840   -17.1200    10.1080 h1         1 QPW       0.047700
     51 H20          9.8670   -16.3560     8.3340 hc         1 QPW       0.058700
     52 H21          8.0110   -16.8600     9.8860 h1         1 QPW       0.062200
     53 H22          9.0200   -17.9510    10.8120 h1         1 QPW       0.062200
     54 H23          8.6170   -14.5030    13.6130 ha         1 QPW       0.125000
     55 H24          7.3840   -11.8560    15.7610 h1         1 QPW       0.044367
     56 H25          7.5070   -12.4610    14.0980 h1         1 QPW       0.044367
     57 H26          7.5600   -13.5960    15.4680 h1         1 QPW       0.044367
     58 H27         13.9670   -10.6270    16.0960 hn         1 QPW       0.515000
     59 H28         17.7160   -12.0470    11.0350 ha         1 QPW       0.121000
     60 CL1         15.3610    -7.8480    11.5050 cl         1 QPW      -0.208000
@<TRIPOS>BOND
     1     1     2 1   
     2     1    19 1   
     3     1    20 1   
     4     2     4 1   
     5     2    32 1   
     6     2    33 1   
     7     3     4 1   
     8     3    34 1   
     9     3    35 1   
    10     3    36 1   
    11     4    37 1   
    12     4    38 1   
    13     5     6 ar  
    14     5    13 ar  
    15     5    27 1   
    16     6    23 ar  
    17     6    26 1   
    18     7    13 ar  
    19     7    20 1   
    20     7    22 ar  
    21     8    29 1   
    22     8    30 1   
    23     8    39 1   
    24     8    40 1   
    25     9    11 ar  
    26     9    30 ar  
    27     9    41 1   
    28    10    30 ar  
    29    10    31 ar  
    30    10    42 1   
    31    11    12 ar  
    32    11    60 1   
    33    12    31 ar  
    34    12    43 1   
    35    13    44 1   
    36    14    15 1   
    37    14    16 1   
    38    14    45 1   
    39    14    46 1   
    40    15    18 1   
    41    15    47 1   
    42    15    48 1   
    43    16    17 1   
    44    17    18 1   
    45    17    49 1   
    46    17    50 1   
    47    18    19 1   
    48    18    51 1   
    49    19    52 1   
    50    19    53 1   
    51    20    21 2   
    52    22    23 ar  
    53    22    54 1   
    54    23    24 1   
    55    24    25 1   
    56    25    55 1   
    57    25    56 1   
    58    25    57 1   
    59    26    28 1   
    60    27    28 2   
    61    28    29 1   
    62    29    58 1   
    63    31    59 1   
@<TRIPOS>SUBSTRUCTURE
     1 QPW         1 TEMP              0 ****  ****    0 ROOT
