@<TRIPOS>MOLECULE
QPW
   60    63     1     0     0
SMALL
No Charge or Current Charge


@<TRIPOS>ATOM
      1 N3           9.4170   -16.1980    11.1090 n          1 QPW      -0.407800
      2 C4           9.1030   -14.9400    10.3720 c3         1 QPW       0.101000
      3 C5           7.3170   -13.2340     9.6620 c3         1 QPW      -0.091100
      4 C6           7.5960   -14.6040    10.3090 c3         1 QPW      -0.096400
      5 C7          12.6660   -13.7350    13.8780 ca         1 QPW       0.133400
      6 C8          11.6940   -12.8820    14.3390 ca         1 QPW      -0.021900
      7 C13         10.9470   -15.0540    12.7700 ca         1 QPW      -0.103600
      8 C17         15.9970   -11.5140    15.4120 c3         1 QPW       0.293100
      9 C20         16.7320    -9.2310    14.5570 ca         1 QPW      -0.093000
     10 C21         16.4060   -11.0290    12.9480 ca         1 QPW      -0.078000
     11 C22         17.0890    -8.3640    13.5110 ca         1 QPW       0.119000
     12 C24         17.1060    -8.8250    12.1840 ca         1 QPW      -0.096000
     13 C26         12.3120   -14.8390    13.0920 ca         1 QPW      -0.073000
     14 C28          9.6010   -20.1450     9.0160 c5         1 QPW       0.151600
     15 C27          8.5050   -19.1220     8.5930 c5         1 QPW      -0.112400
     16 O29         10.8030   -19.3690     9.2310 os         1 QPW      -0.448000
     17 C30         10.5800   -18.0340     8.7350 c5         1 QPW       0.162600
     18 C1           9.0950   -17.7690     9.0780 c5         1 QPW      -0.119700
     19 C2           8.8180   -17.4570    10.5770 c3         1 QPW       0.101000
     20 C16         10.5710   -16.2650    11.9350 c          1 QPW       0.610700
     21 O18         11.2050   -17.3060    12.0560 o          1 QPW      -0.578100
     22 C14          9.9590   -14.1660    13.2920 ca         1 QPW      -0.188000
     23 C11         10.3300   -13.0500    14.0810 ca         1 QPW       0.171100
     24 O31          9.4190   -12.1480    14.5960 os         1 QPW      -0.325100
     25 C32          8.0100   -12.2530    14.3280 c3         1 QPW       0.146900
     26 O10         12.3150   -11.9280    15.0540 os         1 QPW      -0.289700
     27 N9          13.9440   -13.3430    14.2900 nc         1 QPW      -0.653100
     28 C12         13.6350   -12.2460    14.9890 cd         1 QPW       0.775500
     29 N15         14.5450   -11.4730    15.6150 nu         1 QPW      -0.895400
     30 C19         16.3890   -10.5710    14.2820 ca         1 QPW      -0.103300
     31 C23         16.7640   -10.1590    11.9030 ca         1 QPW      -0.102000
     32 H1           9.4880   -15.0280     9.3480 h1         1 QPW       0.053700
     33 H2           9.6340   -14.0890    10.8110 h1         1 QPW       0.053700
     34 H3           6.2390   -13.0360     9.6350 hc         1 QPW       0.035700
     35 H4           7.7990   -12.4300    10.2310 hc         1 QPW       0.035700
     36 H5           7.6960   -13.2060     8.6330 hc         1 QPW       0.035700
     37 H6           7.1810   -14.6080    11.3240 hc         1 QPW       0.042700
     38 H7           7.0650   -15.3760     9.7410 hc         1 QPW       0.042700
     39 H8          16.3330   -12.5330    15.1750 h1         1 QPW       0.065700
     40 H9          16.5140   -11.2130    16.3340 h1         1 QPW       0.065700
     41 H10         16.7210    -8.8610    15.5790 ha         1 QPW       0.124000
     42 H11         16.1400   -12.0590    12.7220 ha         1 QPW       0.123000
     43 H12         17.3830    -8.1500    11.3780 ha         1 QPW       0.129000
     44 H13         13.0850   -15.5120    12.7280 ha         1 QPW       0.145000
     45 H14          9.3430   -20.6560     9.9540 h1         1 QPW       0.043700
     46 H15          9.7790   -20.9020     8.2410 h1         1 QPW       0.043700
     47 H16          8.3730   -19.1300     7.5040 hc         1 QPW       0.052200
     48 H17          7.5280   -19.3480     9.0350 hc         1 QPW       0.052200
     49 H18         10.7550   -18.0210     7.6500 h1         1 QPW       0.047700
     50 H19         11.2730   -17.3290     9.2130 h1         1 QPW       0.047700
     51 H20          8.6890   -16.9440     8.4830 hc         1 QPW       0.058700
     52 H21          7.7320   -17.4000    10.7180 h1         1 QPW       0.062200
     53 H22          9.1520   -18.3080    11.1840 h1         1 QPW       0.062200
     54 H23          8.9110   -14.3640    13.0880 ha         1 QPW       0.125000
     55 H24          7.4690   -11.4320    14.8160 h1         1 QPW       0.044367
     56 H25          7.8120   -12.1980    13.2500 h1         1 QPW       0.044367
     57 H26          7.6090   -13.1990    14.7120 h1         1 QPW       0.044367
     58 H27         14.1380   -10.6240    15.9950 hn         1 QPW       0.515000
     59 H28         16.7750   -10.5190    10.8760 ha         1 QPW       0.121000
     60 Cl1         17.5150    -6.6940    13.8640 cl         1 QPW      -0.208000
@<TRIPOS>BOND
     1     1     2 1   
     2     1    19 1   
     3     1    20 1   
     4     2     4 1   
     5     2    32 1   
     6     2    33 1   
     7     3     4 1   
     8     3    34 1   
     9     3    35 1   
    10     3    36 1   
    11     4    37 1   
    12     4    38 1   
    13     5     6 ar  
    14     5    13 ar  
    15     5    27 1   
    16     6    23 ar  
    17     6    26 1   
    18     7    13 ar  
    19     7    20 1   
    20     7    22 ar  
    21     8    29 1   
    22     8    30 1   
    23     8    39 1   
    24     8    40 1   
    25     9    11 ar  
    26     9    30 ar  
    27     9    41 1   
    28    10    30 ar  
    29    10    31 ar  
    30    10    42 1   
    31    11    12 ar  
    32    11    60 1   
    33    12    31 ar  
    34    12    43 1   
    35    13    44 1   
    36    14    15 1   
    37    14    16 1   
    38    14    45 1   
    39    14    46 1   
    40    15    18 1   
    41    15    47 1   
    42    15    48 1   
    43    16    17 1   
    44    17    18 1   
    45    17    49 1   
    46    17    50 1   
    47    18    19 1   
    48    18    51 1   
    49    19    52 1   
    50    19    53 1   
    51    20    21 2   
    52    22    23 ar  
    53    22    54 1   
    54    23    24 1   
    55    24    25 1   
    56    25    55 1   
    57    25    56 1   
    58    25    57 1   
    59    26    28 1   
    60    27    28 2   
    61    28    29 1   
    62    29    58 1   
    63    31    59 1   
@<TRIPOS>SUBSTRUCTURE
     1 QPW         1 TEMP              0 ****  ****    0 ROOT
