@<TRIPOS>MOLECULE
QPX
   43    46     1     0     0
SMALL
abcg2


@<TRIPOS>ATOM
      1 C02        -53.3430   -29.4010     6.9600 c3         1 QPX       0.147300
      2 C03        -52.0000   -29.4210     6.3110 cc         1 QPX       0.387800
      3 C05        -50.3960   -29.3660     4.8830 ca         1 QPX       0.045400
      4 C06        -49.7940   -29.4050     6.1610 ca         1 QPX      -0.063200
      5 C08        -48.4130   -29.4100     6.3290 ca         1 QPX      -0.138000
      6 C09        -47.6400   -29.3820     5.1790 ca         1 QPX      -0.049000
      7 C10        -48.2190   -29.3440     3.8920 ca         1 QPX      -0.153600
      8 C11        -47.3830   -29.3050     2.6470 c          1 QPX       0.600700
      9 C13        -45.1580   -29.6930     1.6950 c5         1 QPX       0.162000
     10 C14        -43.6820   -29.5720     2.1710 c5         1 QPX      -0.205700
     11 C15        -43.2980   -30.4520     3.4020 c          1 QPX       0.723000
     12 C18        -42.8980   -29.9750     0.9020 c5         1 QPX      -0.008100
     13 C19        -43.7990   -31.0090     0.2760 ca         1 QPX      -0.087300
     14 C20        -43.4990   -32.0060    -0.6440 ca         1 QPX       0.128100
     15 C22        -44.5070   -32.8810    -1.0570 ca         1 QPX      -0.212000
     16 C23        -45.8000   -32.7460    -0.5590 ca         1 QPX      -0.095000
     17 C24        -46.1150   -31.7380     0.3520 ca         1 QPX      -0.113000
     18 C25        -45.1000   -30.8820     0.7540 ca         1 QPX      -0.050300
     19 C27        -49.6030   -29.3270     3.7410 ca         1 QPX      -0.005000
     20 N04        -51.7790   -29.3850     5.0170 nd         1 QPX      -0.572100
     21 N07        -50.8470   -29.4330     7.0450 na         1 QPX      -0.308600
     22 N12        -46.1280   -29.7640     2.7600 ns         1 QPX      -0.482900
     23 O01        -53.2680   -30.1270     8.1840 oh         1 QPX      -0.671000
     24 O16        -44.1540   -30.5650     4.3290 o          1 QPX      -0.723500
     25 O17        -42.1490   -30.9410     3.4250 o          1 QPX      -0.723500
     26 O21        -42.2130   -32.0990    -1.1030 oh         1 QPX      -0.538100
     27 O26        -47.8480   -28.8780     1.5800 o          1 QPX      -0.665100
     28 H022       -54.0700   -29.8360     6.2700 h1         1 QPX       0.048700
     29 H021       -53.6320   -28.3600     7.1480 h1         1 QPX       0.048700
     30 H081       -47.9580   -29.4260     7.3100 ha         1 QPX       0.118000
     31 H091       -46.5640   -29.3640     5.2850 ha         1 QPX       0.153000
     32 H131       -45.3960   -28.8090     1.0950 h1         1 QPX       0.054700
     33 H141       -43.4680   -28.5420     2.4660 hc         1 QPX       0.046700
     34 H182       -42.7780   -29.1140     0.2350 hc         1 QPX       0.056200
     35 H181       -41.9090   -30.3540     1.1450 hc         1 QPX       0.056200
     36 H221       -44.2700   -33.6680    -1.7650 ha         1 QPX       0.092000
     37 H231       -46.5660   -33.4370    -0.8880 ha         1 QPX       0.095000
     38 H241       -47.1200   -31.6310     0.7370 ha         1 QPX       0.123000
     39 H271       -50.0410   -29.2890     2.7530 ha         1 QPX       0.145000
     40 H071       -50.8020   -29.4920     8.0510 hn         1 QPX       0.360000
     41 H121       -45.7300   -30.1190     3.6320 hn         1 QPX       0.387500
     42 H011       -53.9970   -29.8460     8.7490 ho         1 QPX       0.445000
     43 H211       -42.1380   -32.8450    -1.7140 ho         1 QPX       0.442000
@<TRIPOS>BOND
     1     1     2 1   
     2     1    23 1   
     3     1    28 1   
     4     1    29 1   
     5     2    20 2   
     6     2    21 1   
     7     3     4 ar  
     8     3    19 ar  
     9     3    20 1   
    10     4     5 ar  
    11     4    21 1   
    12     5     6 ar  
    13     5    30 1   
    14     6     7 ar  
    15     6    31 1   
    16     7     8 1   
    17     7    19 ar  
    18     8    22 1   
    19     8    27 2   
    20     9    10 1   
    21     9    18 1   
    22     9    22 1   
    23     9    32 1   
    24    10    11 1   
    25    10    12 1   
    26    10    33 1   
    27    11    24 1   
    28    11    25 1   
    29    12    13 1   
    30    12    34 1   
    31    12    35 1   
    32    13    14 ar  
    33    13    18 ar  
    34    14    15 ar  
    35    14    26 1   
    36    15    16 ar  
    37    15    36 1   
    38    16    17 ar  
    39    16    37 1   
    40    17    18 ar  
    41    17    38 1   
    42    19    39 1   
    43    21    40 1   
    44    22    41 1   
    45    23    42 1   
    46    26    43 1   
@<TRIPOS>SUBSTRUCTURE
     1 QPX         1 TEMP              0 ****  ****    0 ROOT
