@<TRIPOS>MOLECULE
QPX
   43    46     1     0     0
SMALL
No Charge or Current Charge


@<TRIPOS>ATOM
      1 C02        -53.1530   -29.6400     7.2050 c3         1 QPX       0.147300
      2 C03        -51.8260   -29.6630     6.4600 cc         1 QPX       0.387800
      3 C05        -50.2960   -29.5380     4.9350 ca         1 QPX       0.045400
      4 C06        -49.6550   -29.8910     6.0830 ca         1 QPX      -0.063200
      5 C08        -48.2770   -30.1060     6.1470 ca         1 QPX      -0.138000
      6 C09        -47.5310   -29.9450     4.9600 ca         1 QPX      -0.049000
      7 C10        -48.1750   -29.5720     3.7410 ca         1 QPX      -0.153600
      8 C11        -47.4140   -29.3900     2.4440 c          1 QPX       0.600700
      9 C13        -45.2410   -29.3280     1.3100 c5         1 QPX       0.162000
     10 C14        -43.7370   -29.1930     1.8090 c5         1 QPX      -0.205700
     11 C15        -43.5530   -28.4920     3.1840 c          1 QPX       0.723000
     12 C18        -43.1500   -30.6600     1.8230 c5         1 QPX      -0.008100
     13 C19        -43.9600   -31.2800     0.7120 ca         1 QPX      -0.087300
     14 C20        -43.6660   -32.4580     0.0030 ca         1 QPX       0.128100
     15 C22        -44.5460   -32.8870    -1.0070 ca         1 QPX      -0.212000
     16 C23        -45.7070   -32.1410    -1.2980 ca         1 QPX      -0.095000
     17 C24        -45.9900   -30.9660    -0.5760 ca         1 QPX      -0.113000
     18 C25        -45.1020   -30.5500     0.4300 ca         1 QPX      -0.050300
     19 C27        -49.5810   -29.3700     3.7400 ca         1 QPX      -0.005000
     20 N04        -51.6660   -29.3880     5.1470 nd         1 QPX      -0.572100
     21 N07        -50.6030   -29.9750     7.0530 na         1 QPX      -0.308600
     22 N12        -46.0470   -29.5520     2.5080 ns         1 QPX      -0.482900
     23 O01        -53.0310   -29.9800     8.6080 oh         1 QPX      -0.671000
     24 O16        -42.9390   -27.4370     3.2180 o          1 QPX      -0.723500
     25 O17        -43.9800   -29.0220     4.2010 o          1 QPX      -0.723500
     26 O21        -42.5460   -33.1830     0.2840 oh         1 QPX      -0.538100
     27 O26        -47.9860   -29.1120     1.3980 o          1 QPX      -0.665100
     28 H022       -53.8350   -30.3420     6.7060 h1         1 QPX       0.048700
     29 H021       -53.5860   -28.6370     7.0970 h1         1 QPX       0.048700
     30 H081       -47.7930   -30.3900     7.0790 ha         1 QPX       0.118000
     31 H091       -46.4590   -30.1160     5.0080 ha         1 QPX       0.153000
     32 H131       -45.5590   -28.4410     0.7450 h1         1 QPX       0.054700
     33 H141       -43.2010   -28.5990     1.0600 hc         1 QPX       0.046700
     34 H182       -42.0700   -30.6750     1.6340 hc         1 QPX       0.056200
     35 H181       -43.3280   -31.1790     2.7730 hc         1 QPX       0.056200
     36 H221       -44.3380   -33.7950    -1.5680 ha         1 QPX       0.092000
     37 H231       -46.3870   -32.4740    -2.0790 ha         1 QPX       0.095000
     38 H241       -46.8850   -30.3880    -0.7950 ha         1 QPX       0.123000
     39 H271       -50.1100   -29.0880     2.8330 ha         1 QPX       0.145000
     40 H071       -50.4740   -30.2150     8.0270 hn         1 QPX       0.360000
     41 H121       -45.6250   -29.6860     3.4210 hn         1 QPX       0.387500
     42 H011       -53.9350   -29.9360     8.9950 ho         1 QPX       0.445000
     43 H211       -42.5270   -33.9590    -0.3160 ho         1 QPX       0.442000
@<TRIPOS>BOND
     1     1     2 1   
     2     1    23 1   
     3     1    28 1   
     4     1    29 1   
     5     2    20 2   
     6     2    21 1   
     7     3     4 ar  
     8     3    19 ar  
     9     3    20 1   
    10     4     5 ar  
    11     4    21 1   
    12     5     6 ar  
    13     5    30 1   
    14     6     7 ar  
    15     6    31 1   
    16     7     8 1   
    17     7    19 ar  
    18     8    22 1   
    19     8    27 2   
    20     9    10 1   
    21     9    18 1   
    22     9    22 1   
    23     9    32 1   
    24    10    11 1   
    25    10    12 1   
    26    10    33 1   
    27    11    24 1   
    28    11    25 1   
    29    12    13 1   
    30    12    34 1   
    31    12    35 1   
    32    13    14 ar  
    33    13    18 ar  
    34    14    15 ar  
    35    14    26 1   
    36    15    16 ar  
    37    15    36 1   
    38    16    17 ar  
    39    16    37 1   
    40    17    18 ar  
    41    17    38 1   
    42    19    39 1   
    43    21    40 1   
    44    22    41 1   
    45    23    42 1   
    46    26    43 1   
@<TRIPOS>SUBSTRUCTURE
     1 QPX         1 TEMP              0 ****  ****    0 ROOT
