@<TRIPOS>MOLECULE
QPY
   63    67     1     0     0
SMALL
No Charge or Current Charge


@<TRIPOS>ATOM
      1 C15         38.4030    15.5570    13.6020 c3         1 QPY       0.222900
      2 C17         36.8130    15.2550    11.6310 ca         1 QPY      -0.094000
      3 C1          40.6040    15.4860    17.8610 c          1 QPY       0.551200
      4 C10         42.9860    14.7410    14.1180 ca         1 QPY       0.174900
      5 C11         42.5930    13.0050    12.6800 ca         1 QPY       0.449900
      6 C12         40.1960    13.3070    16.8920 cc         1 QPY       0.451900
      7 C13         39.1510    12.4010    16.2250 c5         1 QPY       0.098400
      8 C14         39.0520    13.2450    13.8190 c          1 QPY       0.653100
      9 C16         37.0040    15.3600    13.0230 ca         1 QPY      -0.114300
     10 C18         35.5220    15.0730    11.1040 ca         1 QPY      -0.114500
     11 C19         34.4140    14.9970    11.9650 ca         1 QPY      -0.103000
     12 C2          41.9910    15.0020    18.0650 cc         1 QPY       0.087900
     13 C20         34.5980    15.1010    13.3540 ca         1 QPY      -0.114500
     14 C21         35.8890    15.2830    13.8810 ca         1 QPY      -0.094000
     15 C22         39.6180    10.8470    14.3440 c5         1 QPY       0.118000
     16 C23         40.1170    10.2260    15.6710 c5         1 QPY      -0.094400
     17 C24         39.2040    10.9180    16.7180 c5         1 QPY      -0.085400
     18 C3          42.3990    13.7250    17.6820 cd         1 QPY      -0.068600
     19 C4          43.8350    13.3390    17.8900 c          1 QPY       0.639300
     20 C6          46.0870    12.1420    15.9190 c3         1 QPY       0.054600
     21 C7          45.1280    10.8470    13.8970 cc         1 QPY       0.386700
     22 C8          43.6550    12.2960    13.2790 ca         1 QPY      -0.087600
     23 C9          44.3310    12.9010    14.3090 ca         1 QPY       0.122500
     24 N1          39.8110    14.5620    17.2760 ns         1 QPY      -0.406400
     25 N2          44.1000    12.0760    17.4310 ns         1 QPY      -0.466900
     26 N3          45.2550    11.9770    14.7080 na         1 QPY      -0.280300
     27 N4          44.1390    11.0110    12.9980 nd         1 QPY      -0.539100
     28 N5          44.0230    14.1380    14.7470 nb         1 QPY      -0.215000
     29 N6          42.2480    14.2320    13.1030 nb         1 QPY      -0.312000
     30 N8          41.4470    12.8650    17.0790 nd         1 QPY      -0.610300
     31 N9          39.3000    12.2280    14.7530 n          1 QPY      -0.400800
     32 O2          42.8320    15.9060    18.6400 oh         1 QPY      -0.497100
     33 O3          44.6910    14.0690    18.3820 o          1 QPY      -0.650100
     34 O4          38.7380    14.4290    14.4290 os         1 QPY      -0.461100
     35 O5          39.1220    13.0750    12.6100 o          1 QPY      -0.528000
     36 H1          38.4040    16.4750    14.2040 h1         1 QPY       0.073700
     37 H2          39.1410    15.6940    12.8000 h1         1 QPY       0.073700
     38 H3          37.6640    15.3090    10.9550 ha         1 QPY       0.121000
     39 H4          42.7170    15.7370    14.4660 h5         1 QPY       0.044100
     40 H5          38.1570    12.8100    16.4520 h1         1 QPY       0.077700
     41 H6          35.3800    14.9910    10.0280 ha         1 QPY       0.112000
     42 H7          33.4150    14.8570    11.5570 ha         1 QPY       0.112000
     43 H8          33.7420    15.0420    14.0220 ha         1 QPY       0.112000
     44 H9          36.0230    15.3610    14.9580 ha         1 QPY       0.121000
     45 H10         38.7170    10.3390    13.9740 h1         1 QPY       0.060700
     46 H11         40.3860    10.8080    13.5610 h1         1 QPY       0.060700
     47 H12         40.0230     9.1340    15.6810 hc         1 QPY       0.060700
     48 H13         41.1750    10.4590    15.8380 hc         1 QPY       0.060700
     49 H14         39.5770    10.8180    17.7440 hc         1 QPY       0.062200
     50 H15         38.2010    10.4740    16.7020 hc         1 QPY       0.062200
     51 H18         47.0600    11.6640    15.7490 h1         1 QPY       0.082700
     52 H19         46.2720    13.2120    16.0850 h1         1 QPY       0.082700
     53 H20         45.7420     9.9630    14.0260 h5         1 QPY       0.061800
     54 H21         38.8640    14.8570    17.0860 hn         1 QPY       0.334500
     55 H22         43.2950    11.6030    17.0340 hn         1 QPY       0.350500
     56 H23         40.8630    12.7770    11.6750 hn         1 QPY       0.493000
     57 H24         42.0000    11.5070    11.4680 hn         1 QPY       0.493000
     58 H25         43.7170    15.4540    18.6890 ho         1 QPY       0.524000
     59 O1          40.1730    16.5910    18.1650 o          1 QPY      -0.500000
     60 C5          45.4400    11.5350    17.1860 c3         1 QPY       0.089000
     61 N7          41.8410    12.4880    11.6750 nv         1 QPY      -1.022900
     62 H16         45.3610    10.4470    17.0680 h1         1 QPY       0.062700
     63 H17         46.0770    11.7360    18.0570 h1         1 QPY       0.062700
@<TRIPOS>BOND
     1     1     9 1   
     2     1    34 1   
     3     1    36 1   
     4     1    37 1   
     5     2     9 ar  
     6     2    10 ar  
     7     2    38 1   
     8     3    12 1   
     9     3    24 1   
    10     3    59 2   
    11     4    28 ar  
    12     4    29 ar  
    13     4    39 1   
    14     5    22 ar  
    15     5    29 ar  
    16     5    61 1   
    17     6     7 1   
    18     6    24 1   
    19     6    30 2   
    20     7    17 1   
    21     7    31 1   
    22     7    40 1   
    23     8    31 1   
    24     8    34 1   
    25     8    35 2   
    26     9    14 ar  
    27    10    11 ar  
    28    10    41 1   
    29    11    13 ar  
    30    11    42 1   
    31    12    18 2   
    32    12    32 1   
    33    13    14 ar  
    34    13    43 1   
    35    14    44 1   
    36    15    16 1   
    37    15    31 1   
    38    15    45 1   
    39    15    46 1   
    40    16    17 1   
    41    16    47 1   
    42    16    48 1   
    43    17    49 1   
    44    17    50 1   
    45    18    19 1   
    46    18    30 1   
    47    19    25 1   
    48    19    33 2   
    49    20    26 1   
    50    20    51 1   
    51    20    52 1   
    52    20    60 1   
    53    21    26 1   
    54    21    27 2   
    55    21    53 1   
    56    22    23 ar  
    57    22    27 1   
    58    23    26 1   
    59    23    28 ar  
    60    24    54 1   
    61    25    55 1   
    62    25    60 1   
    63    32    58 1   
    64    56    61 1   
    65    57    61 1   
    66    60    62 1   
    67    60    63 1   
@<TRIPOS>SUBSTRUCTURE
     1 QPY         1 TEMP              0 ****  ****    0 ROOT
