@<TRIPOS>MOLECULE
QPY
   63    67     1     0     0
SMALL
abcg2


@<TRIPOS>ATOM
      1 C15         39.0360    15.0210    14.0950 c3         1 QPY       0.222900
      2 C17         38.3280    15.2920    11.7130 ca         1 QPY      -0.094000
      3 C1          40.4380    15.0620    19.0240 c          1 QPY       0.551200
      4 C10         42.8160    15.2600    12.9740 ca         1 QPY       0.174900
      5 C11         42.0270    13.4570    11.7800 ca         1 QPY       0.449900
      6 C12         39.9380    13.1710    17.5950 cc         1 QPY       0.451900
      7 C13         38.8480    12.2750    17.0570 c5         1 QPY       0.098400
      8 C14         39.2380    12.7420    14.6710 c          1 QPY       0.653100
      9 C16         37.9840    14.9730    13.0230 ca         1 QPY      -0.114300
     10 C18         37.3630    15.3140    10.7140 ca         1 QPY      -0.114500
     11 C19         36.0430    15.0050    11.0150 ca         1 QPY      -0.103000
     12 C2          41.8300    14.8240    18.6510 cc         1 QPY       0.087900
     13 C20         35.6950    14.6820    12.3210 ca         1 QPY      -0.114500
     14 C21         36.6580    14.6710    13.3210 ca         1 QPY      -0.094000
     15 C22         39.5620    10.4870    15.5730 c5         1 QPY       0.118000
     16 C23         39.7560    10.0450    17.0190 c5         1 QPY      -0.094400
     17 C24         38.7920    10.9320    17.8020 c5         1 QPY      -0.085400
     18 C3          42.1170    13.7840    17.8150 cd         1 QPY      -0.068600
     19 C4          43.5280    13.4900    17.4660 c          1 QPY       0.639300
     20 C6          45.4920    12.5190    15.0290 c3         1 QPY       0.054600
     21 C7          44.1760    11.1830    13.3480 cc         1 QPY       0.386700
     22 C8          42.9340    12.6600    12.4980 ca         1 QPY      -0.087600
     23 C9          43.7240    13.3150    13.4320 ca         1 QPY       0.122500
     24 N1          39.5690    14.1710    18.4360 ns         1 QPY      -0.406400
     25 N2          43.7160    12.3900    16.7420 ns         1 QPY      -0.466900
     26 N3          44.5220    12.3490    13.9690 na         1 QPY      -0.280300
     27 N4          43.2320    11.3240    12.4620 nd         1 QPY      -0.539100
     28 N5          43.7000    14.6160    13.7130 nb         1 QPY      -0.215000
     29 N6          42.0000    14.7660    12.0440 nb         1 QPY      -0.312000
     30 N8          41.1640    12.9630    17.2870 nd         1 QPY      -0.610300
     31 N9          39.1330    11.8750    15.6970 n          1 QPY      -0.400800
     32 O2          42.7130    15.6580    19.1790 oh         1 QPY      -0.497100
     33 O3          44.4420    14.2220    17.8640 o          1 QPY      -0.650100
     34 O4          38.9120    13.9830    15.0610 os         1 QPY      -0.461100
     35 O5          39.5740    12.4460    13.5460 o          1 QPY      -0.528000
     36 H1          38.9410    15.9390    14.6760 h1         1 QPY       0.073700
     37 H2          40.0300    15.0140    13.6460 h1         1 QPY       0.073700
     38 H3          39.3600    15.5230    11.4760 ha         1 QPY       0.121000
     39 H4          42.7380    16.3290    13.1420 h5         1 QPY       0.044100
     40 H5          37.8880    12.7940    17.1260 h1         1 QPY       0.077700
     41 H6          37.6460    15.5620     9.7000 ha         1 QPY       0.112000
     42 H7          35.2900    15.0150    10.2380 ha         1 QPY       0.112000
     43 H8          34.6670    14.4430    12.5640 ha         1 QPY       0.112000
     44 H9          36.3700    14.4230    14.3350 ha         1 QPY       0.121000
     45 H10         38.7920     9.8940    15.0730 h1         1 QPY       0.060700
     46 H11         40.4750    10.4150    14.9830 h1         1 QPY       0.060700
     47 H12         39.5460     8.9850    17.1540 hc         1 QPY       0.060700
     48 H13         40.7830    10.2250    17.3370 hc         1 QPY       0.060700
     49 H14         39.0490    11.0300    18.8560 hc         1 QPY       0.062200
     50 H15         37.7740    10.5440    17.7440 hc         1 QPY       0.062200
     51 H18         46.4360    12.0610    14.7360 h1         1 QPY       0.082700
     52 H19         45.6640    13.5870    15.1470 h1         1 QPY       0.082700
     53 H20         44.6690    10.2530    13.5900 h5         1 QPY       0.061800
     54 H21         38.5860    14.2970    18.6470 hn         1 QPY       0.334500
     55 H22         42.8850    11.8830    16.4720 hn         1 QPY       0.350500
     56 H23         40.4660    13.5330    10.5070 hn         1 QPY       0.493000
     57 H24         41.0750    11.9720    10.7910 hn         1 QPY       0.493000
     58 H25         43.5970    15.3780    18.8440 ho         1 QPY       0.524000
     59 O1          40.0660    15.9470    19.7700 o          1 QPY      -0.500000
     60 C5          45.0090    11.9020    16.3370 c3         1 QPY       0.089000
     61 N7          41.2380    12.9640    10.8140 nv         1 QPY      -1.022900
     62 H16         44.9360    10.8190    16.2370 h1         1 QPY       0.062700
     63 H17         45.7470    12.1030    17.1130 h1         1 QPY       0.062700
@<TRIPOS>BOND
     1     1     9 1   
     2     1    34 1   
     3     1    36 1   
     4     1    37 1   
     5     2     9 ar  
     6     2    10 ar  
     7     2    38 1   
     8     3    12 1   
     9     3    24 1   
    10     3    59 2   
    11     4    28 ar  
    12     4    29 ar  
    13     4    39 1   
    14     5    22 ar  
    15     5    29 ar  
    16     5    61 1   
    17     6     7 1   
    18     6    24 1   
    19     6    30 2   
    20     7    17 1   
    21     7    31 1   
    22     7    40 1   
    23     8    31 1   
    24     8    34 1   
    25     8    35 2   
    26     9    14 ar  
    27    10    11 ar  
    28    10    41 1   
    29    11    13 ar  
    30    11    42 1   
    31    12    18 2   
    32    12    32 1   
    33    13    14 ar  
    34    13    43 1   
    35    14    44 1   
    36    15    16 1   
    37    15    31 1   
    38    15    45 1   
    39    15    46 1   
    40    16    17 1   
    41    16    47 1   
    42    16    48 1   
    43    17    49 1   
    44    17    50 1   
    45    18    19 1   
    46    18    30 1   
    47    19    25 1   
    48    19    33 2   
    49    20    26 1   
    50    20    51 1   
    51    20    52 1   
    52    20    60 1   
    53    21    26 1   
    54    21    27 2   
    55    21    53 1   
    56    22    23 ar  
    57    22    27 1   
    58    23    26 1   
    59    23    28 ar  
    60    24    54 1   
    61    25    55 1   
    62    25    60 1   
    63    32    58 1   
    64    56    61 1   
    65    57    61 1   
    66    60    62 1   
    67    60    63 1   
@<TRIPOS>SUBSTRUCTURE
     1 QPY         1 TEMP              0 ****  ****    0 ROOT
