@<TRIPOS>MOLECULE
QPZ
   42    44     1     0     0
SMALL
bcc


@<TRIPOS>ATOM
      1 C1          -0.2580     5.9100    31.6770 ca         1 QPZ      -0.316500
      2 N1          -1.0230     4.6670    33.8680 n7         1 QPZ      -0.836100
      3 O1          -2.0060     3.9170    31.7210 o          1 QPZ      -0.615800
      4 C2          -0.2830     7.2630    31.3590 ca         1 QPZ       0.010000
      5 N2           3.1620     7.7450    30.1850 n          1 QPZ      -0.348000
      6 O2          -2.6910     6.1660    32.5650 o          1 QPZ      -0.615800
      7 C3           0.8430     7.8650    30.8430 ca         1 QPZ      -0.211000
      8 C4           2.0230     7.1320    30.6530 ca         1 QPZ       0.154600
      9 C5           2.0320     5.7530    30.9540 ca         1 QPZ      -0.150800
     10 C6           0.8800     5.1600    31.4610 ca         1 QPZ       0.049000
     11 C7           3.2440     4.9960    30.7520 cc         1 QPZ       0.035600
     12 C8           4.3330     5.6440    30.2960 cd         1 QPZ      -0.258200
     13 C9           4.3520     7.0610    29.9940 c          1 QPZ       0.710700
     14 C10          3.2780     3.5330    31.0500 c3         1 QPZ      -0.066900
     15 C11          3.1290     9.1690    29.8920 c3         1 QPZ       0.066300
     16 C12         -0.5060     5.6780    34.7930 c3         1 QPZ       0.256100
     17 C13          0.9690     5.9230    34.5960 ca         1 QPZ      -0.102300
     18 C14          1.4510     7.1910    34.3010 ca         1 QPZ      -0.110000
     19 C15          2.8080     7.4040    34.0900 ca         1 QPZ      -0.132000
     20 C16          3.6990     6.3450    34.1780 ca         1 QPZ      -0.116000
     21 C17          3.2260     5.0740    34.4870 ca         1 QPZ      -0.132000
     22 C18          1.8710     4.8660    34.6920 ca         1 QPZ      -0.110000
     23 S1          -1.6590     5.1450    32.4210 sy         1 QPZ       1.294200
     24 H1          -1.6060     3.9560    34.2980 hn         1 QPZ       0.431800
     25 H2          -1.1710     7.8570    31.5240 ha         1 QPZ       0.160000
     26 H3           0.7960     8.9180    30.6120 ha         1 QPZ       0.144000
     27 H6           0.8940     4.1090    31.7160 ha         1 QPZ       0.152000
     28 H8           5.2640     5.1170    30.1350 ha         1 QPZ       0.160000
     29 H10B         3.0220     3.3420    32.0930 hc         1 QPZ       0.054700
     30 H10A         2.5590     2.9890    30.4340 hc         1 QPZ       0.054700
     31 H10C         4.2660     3.1210    30.8610 hc         1 QPZ       0.054700
     32 H11A         2.3870     9.3860    29.1240 h1         1 QPZ       0.057700
     33 H11C         2.8900     9.7400    30.7890 h1         1 QPZ       0.057700
     34 H11B         4.1020     9.4790    29.5320 h1         1 QPZ       0.057700
     35 H12A        -1.0640     6.6160    34.7280 h1         1 QPZ       0.057200
     36 H12B        -0.6860     5.2870    35.7950 h1         1 QPZ       0.057200
     37 H14          0.7580     8.0200    34.2160 ha         1 QPZ       0.132000
     38 H15          3.1650     8.3960    33.8460 ha         1 QPZ       0.132500
     39 H16          4.7550     6.5050    34.0060 ha         1 QPZ       0.136000
     40 H17          3.9160     4.2430    34.5620 ha         1 QPZ       0.132500
     41 H18          1.5100     3.8690    34.9190 ha         1 QPZ       0.132000
     42 O3           5.3570     7.6290    29.5900 o          1 QPZ      -0.618500
@<TRIPOS>BOND
     1     1     4 ar  
     2     1    10 ar  
     3     1    23 1   
     4     2    16 1   
     5     2    23 1   
     6     2    24 1   
     7     3    23 2   
     8     4     7 ar  
     9     4    25 1   
    10     5     8 1   
    11     5    13 1   
    12     5    15 1   
    13     6    23 2   
    14     7     8 ar  
    15     7    26 1   
    16     8     9 ar  
    17     9    10 ar  
    18     9    11 1   
    19    10    27 1   
    20    11    12 2   
    21    11    14 1   
    22    12    13 1   
    23    12    28 1   
    24    13    42 2   
    25    14    29 1   
    26    14    30 1   
    27    14    31 1   
    28    15    32 1   
    29    15    33 1   
    30    15    34 1   
    31    16    17 1   
    32    16    35 1   
    33    16    36 1   
    34    17    18 ar  
    35    17    22 ar  
    36    18    19 ar  
    37    18    37 1   
    38    19    20 ar  
    39    19    38 1   
    40    20    21 ar  
    41    20    39 1   
    42    21    22 ar  
    43    21    40 1   
    44    22    41 1   
@<TRIPOS>SUBSTRUCTURE
     1 QPZ         1 TEMP              0 ****  ****    0 ROOT
