@<TRIPOS>MOLECULE
QPZ
   42    44     1     0     0
SMALL
No Charge or Current Charge


@<TRIPOS>ATOM
      1 C1          -0.2530     5.8560    31.7260 ca         1 QPZ      -0.316500
      2 N1          -1.1280     4.6180    33.9640 n7         1 QPZ      -0.891300
      3 O1          -1.8830     3.7700    31.7590 o          1 QPZ      -0.545000
      4 C2          -0.2610     7.2380    31.4910 ca         1 QPZ       0.028000
      5 N2           3.2500     7.7630    30.2300 n          1 QPZ      -0.281000
      6 O2          -2.7630     6.0020    32.6660 o          1 QPZ      -0.545000
      7 C3           0.8860     7.8580    30.9770 ca         1 QPZ      -0.193000
      8 C4           2.0450     7.1090    30.6660 ca         1 QPZ       0.154600
      9 C5           2.0620     5.7190    30.9310 ca         1 QPZ      -0.150800
     10 C6           0.8960     5.1030    31.4410 ca         1 QPZ       0.067000
     11 C7           3.2770     4.9150    30.7300 cc         1 QPZ       0.035600
     12 C8           4.4020     5.6230    30.3660 cd         1 QPZ      -0.308200
     13 C9           4.4670     7.0680    30.1050 c          1 QPZ       0.568200
     14 C10          3.3250     3.4210    30.9380 c3         1 QPZ      -0.066900
     15 C11          3.2030     9.1910    29.8210 c3         1 QPZ       0.066300
     16 C12         -0.5710     5.6650    34.8450 c3         1 QPZ       0.256100
     17 C13          0.9070     5.9440    34.5770 ca         1 QPZ      -0.102300
     18 C14          1.3540     7.2610    34.3390 ca         1 QPZ      -0.092000
     19 C15          2.7120     7.5150    34.0780 ca         1 QPZ      -0.114000
     20 C16          3.6370     6.4570    34.0660 ca         1 QPZ      -0.098000
     21 C17          3.2040     5.1460    34.3220 ca         1 QPZ      -0.114000
     22 C18          1.8450     4.8900    34.5780 ca         1 QPZ      -0.092000
     23 S1          -1.6770     5.0460    32.4480 sy         1 QPZ       1.152600
     24 H1          -2.0090     4.3040    34.3670 hn         1 QPZ       0.487000
     25 H2          -1.1380     7.8400    31.7250 ha         1 QPZ       0.142000
     26 H3           0.8550     8.9340    30.8370 ha         1 QPZ       0.126000
     27 H6           0.8850     4.0380    31.6630 ha         1 QPZ       0.134000
     28 H8           5.3530     5.1230    30.2270 ha         1 QPZ       0.210000
     29 H10B         3.1270     3.1640    31.9850 hc         1 QPZ       0.054700
     30 H10A         2.5790     2.9150    30.3130 hc         1 QPZ       0.054700
     31 H10C         4.3060     3.0080    30.6770 hc         1 QPZ       0.054700
     32 H11A         2.3440     9.3600    29.1600 h1         1 QPZ       0.057700
     33 H11C         3.1060     9.8250    30.7110 h1         1 QPZ       0.057700
     34 H11B         4.1060     9.4890    29.2750 h1         1 QPZ       0.057700
     35 H12A        -1.1510     6.5960    34.7720 h1         1 QPZ       0.057200
     36 H12B        -0.6460     5.3350    35.8900 h1         1 QPZ       0.057200
     37 H14          0.6470     8.0870    34.3400 ha         1 QPZ       0.114000
     38 H15          3.0460     8.5310    33.8800 ha         1 QPZ       0.114500
     39 H16          4.6870     6.6540    33.8590 ha         1 QPZ       0.118000
     40 H17          3.9190     4.3270    34.3150 ha         1 QPZ       0.114500
     41 H18          1.5160     3.8710    34.7670 ha         1 QPZ       0.114000
     42 O3           5.5170     7.6070    29.7830 o          1 QPZ      -0.543000
@<TRIPOS>BOND
     1     1     4 ar  
     2     1    10 ar  
     3     1    23 1   
     4     2    16 1   
     5     2    23 1   
     6     2    24 1   
     7     3    23 2   
     8     4     7 ar  
     9     4    25 1   
    10     5     8 1   
    11     5    13 1   
    12     5    15 1   
    13     6    23 2   
    14     7     8 ar  
    15     7    26 1   
    16     8     9 ar  
    17     9    10 ar  
    18     9    11 1   
    19    10    27 1   
    20    11    12 2   
    21    11    14 1   
    22    12    13 1   
    23    12    28 1   
    24    13    42 2   
    25    14    29 1   
    26    14    30 1   
    27    14    31 1   
    28    15    32 1   
    29    15    33 1   
    30    15    34 1   
    31    16    17 1   
    32    16    35 1   
    33    16    36 1   
    34    17    18 ar  
    35    17    22 ar  
    36    18    19 ar  
    37    18    37 1   
    38    19    20 ar  
    39    19    38 1   
    40    20    21 ar  
    41    20    39 1   
    42    21    22 ar  
    43    21    40 1   
    44    22    41 1   
@<TRIPOS>SUBSTRUCTURE
     1 QPZ         1 TEMP              0 ****  ****    0 ROOT
