@<TRIPOS>MOLECULE
QQ0
   29    29     1     0     0
SMALL
abcg2


@<TRIPOS>ATOM
      1 N1         -15.1250    19.0840    -1.2100 n3         1 QQ0      -0.797500
      2 C2         -15.2310    17.7820    -1.8830 c3         1 QQ0       0.241800
      3 C3         -15.0580    17.8290    -3.3940 c3         1 QQ0       0.062600
      4 C4         -17.4620    20.5130    -1.3540 ca         1 QQ0      -0.268500
      5 C6         -19.4940    20.5570    -2.6230 ca         1 QQ0      -0.079000
      6 C9         -17.9580    22.4270    -2.7030 ca         1 QQ0      -0.079000
      7 C10        -17.1100    21.7780    -1.8190 ca         1 QQ0      -0.022000
      8 C1         -14.0180    19.9620    -1.5900 c3         1 QQ0       0.205100
      9 C5         -18.6500    19.8980    -1.7470 ca         1 QQ0      -0.022000
     10 C7         -19.1480    21.8200    -3.1090 ca         1 QQ0      -0.148600
     11 S1         -16.3700    18.8280    -4.2020 sh         1 QQ0      -0.462800
     12 S2         -16.3380    19.6470    -0.2840 sy         1 QQ0       1.221600
     13 H1         -16.1880    17.3380    -1.6210 h1         1 QQ0       0.073200
     14 H2         -14.4460    17.1330    -1.4830 h1         1 QQ0       0.073200
     15 H3         -15.1130    16.8060    -3.7640 h1         1 QQ0       0.067200
     16 H4         -14.0890    18.2410    -3.6650 h1         1 QQ0       0.067200
     17 H5         -20.4210    20.0990    -2.9410 ha         1 QQ0       0.127000
     18 H6         -19.6530    23.5290    -4.3700 h4         1 QQ0      -0.005800
     19 H9         -17.7010    23.4090    -3.0790 ha         1 QQ0       0.127000
     20 H10        -16.1920    22.2470    -1.4940 ha         1 QQ0       0.135000
     21 H11        -13.9190    20.7620    -0.8640 h1         1 QQ0       0.051700
     22 H12        -13.0990    19.3740    -1.5880 h1         1 QQ0       0.051700
     23 H13        -14.1690    20.3890    -2.5830 h1         1 QQ0       0.051700
     24 H14        -18.8990    18.9180    -1.3680 ha         1 QQ0       0.135000
     25 H15        -15.9120    18.6750    -5.4550 hs         1 QQ0       0.220800
     26 O3         -21.0840    22.1130    -4.4720 o          1 QQ0      -0.509100
     27 C8         -20.0270    22.5390    -4.0520 c          1 QQ0       0.575500
     28 O1         -15.7800    20.6260     0.6180 o          1 QQ0      -0.546500
     29 O2         -17.0440    18.5070     0.2500 o          1 QQ0      -0.546500
@<TRIPOS>BOND
     1     1     2 1   
     2     1     8 1   
     3     1    12 1   
     4     2     3 1   
     5     2    13 1   
     6     2    14 1   
     7     3    11 1   
     8     3    15 1   
     9     3    16 1   
    10     4     7 ar  
    11     4     9 ar  
    12     4    12 1   
    13     5     9 ar  
    14     5    10 ar  
    15     5    17 1   
    16     6     7 ar  
    17     6    10 ar  
    18     6    19 1   
    19     7    20 1   
    20     8    21 1   
    21     8    22 1   
    22     8    23 1   
    23     9    24 1   
    24    10    27 1   
    25    11    25 1   
    26    12    28 2   
    27    12    29 2   
    28    18    27 1   
    29    26    27 2   
@<TRIPOS>SUBSTRUCTURE
     1 QQ0         1 TEMP              0 ****  ****    0 ROOT
