@<TRIPOS>MOLECULE
QQ0
   29    29     1     0     0
SMALL
No Charge or Current Charge


@<TRIPOS>ATOM
      1 N1         -15.0570    19.0010    -1.0160 n3         1 QQ0      -0.797500
      2 C2         -15.4840    17.8680    -1.8900 c3         1 QQ0       0.241800
      3 C3         -15.2430    17.9920    -3.4230 c3         1 QQ0       0.062600
      4 C4         -17.3700    20.4970    -1.2880 ca         1 QQ0      -0.268500
      5 C6         -19.4030    20.4230    -2.6340 ca         1 QQ0      -0.079000
      6 C9         -17.9310    22.3560    -2.7650 ca         1 QQ0      -0.079000
      7 C10        -17.0690    21.7660    -1.8240 ca         1 QQ0      -0.022000
      8 C1         -13.9620    19.8670    -1.5110 c3         1 QQ0       0.205100
      9 C5         -18.5430    19.8290    -1.6940 ca         1 QQ0      -0.022000
     10 C7         -19.1040    21.6900    -3.1790 ca         1 QQ0      -0.148600
     11 S1         -16.1500    19.3520    -4.3120 sh         1 QQ0      -0.462800
     12 S2         -16.2690    19.7480    -0.0740 sy         1 QQ0       1.221600
     13 H1         -16.5480    17.6380    -1.7440 h1         1 QQ0       0.073200
     14 H2         -14.9450    16.9680    -1.5630 h1         1 QQ0       0.073200
     15 H3         -15.5430    17.0440    -3.8880 h1         1 QQ0       0.067200
     16 H4         -14.1690    18.1110    -3.6150 h1         1 QQ0       0.067200
     17 H5         -20.3030    19.8920    -2.9400 ha         1 QQ0       0.127000
     18 H6         -19.6890    23.3300    -4.5690 h4         1 QQ0      -0.005800
     19 H9         -17.6830    23.3340    -3.1730 ha         1 QQ0       0.127000
     20 H10        -16.1690    22.2960    -1.5190 ha         1 QQ0       0.135000
     21 H11        -13.5140    20.4510    -0.6970 h1         1 QQ0       0.051700
     22 H12        -13.1560    19.2660    -1.9520 h1         1 QQ0       0.051700
     23 H13        -14.3260    20.5680    -2.2740 h1         1 QQ0       0.051700
     24 H14        -18.7950    18.8510    -1.2870 ha         1 QQ0       0.135000
     25 H15        -15.6670    19.0720    -5.5480 hs         1 QQ0       0.220800
     26 O3         -21.0520    21.8210    -4.5940 o          1 QQ0      -0.509100
     27 C8         -20.0130    22.3350    -4.1920 c          1 QQ0       0.575500
     28 O1         -15.5920    20.8070     0.6840 o          1 QQ0      -0.546500
     29 O2         -16.9510    18.6570     0.6330 o          1 QQ0      -0.546500
@<TRIPOS>BOND
     1     1     2 1   
     2     1     8 1   
     3     1    12 1   
     4     2     3 1   
     5     2    13 1   
     6     2    14 1   
     7     3    11 1   
     8     3    15 1   
     9     3    16 1   
    10     4     7 ar  
    11     4     9 ar  
    12     4    12 1   
    13     5     9 ar  
    14     5    10 ar  
    15     5    17 1   
    16     6     7 ar  
    17     6    10 ar  
    18     6    19 1   
    19     7    20 1   
    20     8    21 1   
    21     8    22 1   
    22     8    23 1   
    23     9    24 1   
    24    10    27 1   
    25    11    25 1   
    26    12    28 2   
    27    12    29 2   
    28    18    27 1   
    29    26    27 2   
@<TRIPOS>SUBSTRUCTURE
     1 QQ0         1 TEMP              0 ****  ****    0 ROOT
