@<TRIPOS>MOLECULE
QQ2
   60    62     1     0     0
SMALL
No Charge or Current Charge


@<TRIPOS>ATOM
      1 C22          3.4060     1.3530    -0.2910 ca         1 QQ2      -0.153500
      2 C1          -2.1200     1.9100     0.6860 ca         1 QQ2       0.191900
      3 C5          -1.0140     0.2070    -0.3550 ca         1 QQ2       0.408900
      4 C4          -2.2280    -0.2970    -0.8200 ca         1 QQ2      -0.356000
      5 C3          -3.3970     0.4010    -0.4790 ca         1 QQ2       0.411900
      6 C11         -8.2080     1.2810     1.0880 ca         1 QQ2      -0.099000
      7 C10         -7.9540     1.6720    -0.2380 ca         1 QQ2      -0.068300
      8 C9          -6.7810     1.2290    -0.8790 ca         1 QQ2      -0.099000
      9 C8          -5.8540     0.4060    -0.2110 ca         1 QQ2       0.295000
     10 C12         -7.2960     0.4570     1.7680 ca         1 QQ2      -0.095000
     11 C16         -4.8470    -0.9340    -2.0680 c3         1 QQ2       0.303900
     12 C13         -6.1240     0.0190     1.1280 ca         1 QQ2       0.124000
     13 C20          1.5240    -0.1970    -0.4860 ca         1 QQ2       0.263000
     14 N2          -3.3400     1.5130     0.2790 nb         1 QQ2      -0.259000
     15 N6          -0.9490     1.3080     0.4090 nb         1 QQ2      -0.268000
     16 N7          -4.6830    -0.0140    -0.8990 nh         1 QQ2      -0.816100
     17 N18         -5.0060    -3.5070    -1.4680 n1         1 QQ2      -0.437000
     18 N19          0.1580    -0.4770    -0.6470 nu         1 QQ2      -0.937900
     19 C21          2.0260     1.1200    -0.4390 ca         1 QQ2      -0.093500
     20 C23          4.3040     0.2780    -0.1970 ca         1 QQ2       0.127100
     21 C24          3.8110    -1.0430    -0.2590 ca         1 QQ2      -0.153500
     22 C25          2.4300    -1.2720    -0.4080 ca         1 QQ2      -0.093500
     23 O26          5.6450     0.5670    -0.0530 os         1 QQ2      -0.328100
     24 C27          6.6460    -0.4650     0.0560 c3         1 QQ2       0.129600
     25 C28          8.0300     0.2140     0.2120 c3         1 QQ2       0.165300
     26 C29          9.1830    -0.8380     0.2520 c3         1 QQ2       0.133800
     27 N30         10.4560    -0.4150     0.9090 n3         1 QQ2      -0.704600
     28 C31         11.3970    -1.5460     1.0750 c3         1 QQ2       0.145100
     29 C32         11.1090     0.7550     0.2720 c3         1 QQ2       0.145100
     30 O33          8.2160     1.1520    -0.8720 oh         1 QQ2      -0.635000
     31 Cl1         -5.0300    -1.0460     2.0240 cl         1 QQ2      -0.180000
     32 H22          3.7820     2.3720    -0.2550 ha         1 QQ2       0.123500
     33 H1          -2.0760     2.8070     1.3020 h5         1 QQ2       0.047100
     34 H4          -2.2520    -1.2030    -1.4130 ha         1 QQ2       0.128000
     35 H11         -9.1130     1.6130     1.5940 ha         1 QQ2       0.118000
     36 H9          -6.5800     1.5350    -1.9020 ha         1 QQ2       0.121000
     37 H12         -7.4990     0.1530     2.7920 ha         1 QQ2       0.132000
     38 H161        -5.7620    -0.6800    -2.6190 h1         1 QQ2       0.081700
     39 H162        -4.0310    -0.7920    -2.7880 h1         1 QQ2       0.081700
     40 H19         -0.0250    -1.4180    -0.9940 hn         1 QQ2       0.495000
     41 H21          1.3580     1.9690    -0.5340 ha         1 QQ2       0.125000
     42 H24          4.4770    -1.8990    -0.1950 ha         1 QQ2       0.123500
     43 H25          2.0620    -2.2940    -0.4530 ha         1 QQ2       0.125000
     44 H271         6.6490    -1.0980    -0.8410 h1         1 QQ2       0.034200
     45 H272         6.4530    -1.0990     0.9310 h1         1 QQ2       0.034200
     46 H28          8.0240     0.7390     1.1780 h1         1 QQ2       0.103700
     47 H291         9.3840    -1.1750    -0.7740 h1         1 QQ2       0.031700
     48 H292         8.7990    -1.7140     0.7920 h1         1 QQ2       0.031700
     49 H311        12.2870    -1.2340     1.6380 h1         1 QQ2       0.033867
     50 H312        10.9230    -2.3690     1.6270 h1         1 QQ2       0.033867
     51 H313        11.7250    -1.9310     0.1000 h1         1 QQ2       0.033867
     52 H321        10.4710     1.6460     0.3310 h1         1 QQ2       0.033867
     53 H322        12.0520     0.9960     0.7800 h1         1 QQ2       0.033867
     54 H323        11.3300     0.5530    -0.7850 h1         1 QQ2       0.033867
     55 H33          7.3440     1.5870    -1.0000 ho         1 QQ2       0.434000
     56 H331        -9.6680     1.9600    -1.5350 hc         1 QQ2       0.046033
     57 H332        -9.4980     3.2060    -0.2860 hc         1 QQ2       0.046033
     58 H333        -8.4300     3.2170    -1.6940 hc         1 QQ2       0.046033
     59 C33         -8.9410     2.5630    -0.9780 c3         1 QQ2      -0.047800
     60 C17         -4.9230    -2.3710    -1.7250 c1         1 QQ2       0.264900
@<TRIPOS>BOND
     1     1    19 ar  
     2     1    20 ar  
     3     1    32 1   
     4     2    14 ar  
     5     2    15 ar  
     6     2    33 1   
     7     3     4 ar  
     8     3    15 ar  
     9     3    18 1   
    10     4     5 ar  
    11     4    34 1   
    12     5    14 ar  
    13     5    16 1   
    14     6     7 ar  
    15     6    10 ar  
    16     6    35 1   
    17     7     8 ar  
    18     7    59 1   
    19     8     9 ar  
    20     8    36 1   
    21     9    12 ar  
    22     9    16 1   
    23    10    12 ar  
    24    10    37 1   
    25    11    16 1   
    26    11    38 1   
    27    11    39 1   
    28    11    60 1   
    29    12    31 1   
    30    13    18 1   
    31    13    19 ar  
    32    13    22 ar  
    33    17    60 3   
    34    18    40 1   
    35    19    41 1   
    36    20    21 ar  
    37    20    23 1   
    38    21    22 ar  
    39    21    42 1   
    40    22    43 1   
    41    23    24 1   
    42    24    25 1   
    43    24    44 1   
    44    24    45 1   
    45    25    26 1   
    46    25    30 1   
    47    25    46 1   
    48    26    27 1   
    49    26    47 1   
    50    26    48 1   
    51    27    28 1   
    52    27    29 1   
    53    28    49 1   
    54    28    50 1   
    55    28    51 1   
    56    29    52 1   
    57    29    53 1   
    58    29    54 1   
    59    30    55 1   
    60    56    59 1   
    61    57    59 1   
    62    58    59 1   
@<TRIPOS>SUBSTRUCTURE
     1 QQ2         1 TEMP              0 ****  ****    0 ROOT
