@<TRIPOS>MOLECULE
QQ2
   60    62     1     0     0
SMALL
abcg2


@<TRIPOS>ATOM
      1 C22          3.2990     1.4210    -0.2240 ca         1 QQ2      -0.153500
      2 C1          -2.0290     1.6650     0.6570 ca         1 QQ2       0.191900
      3 C5          -0.9580     0.1580    -0.6280 ca         1 QQ2       0.408900
      4 C4          -2.1940    -0.3380    -1.0650 ca         1 QQ2      -0.356000
      5 C3          -3.3270     0.2800    -0.5560 ca         1 QQ2       0.411900
      6 C11         -7.9520     1.3190     1.1630 ca         1 QQ2      -0.099000
      7 C10         -7.7260     1.7480    -0.1410 ca         1 QQ2      -0.068300
      8 C9          -6.5930     1.2770    -0.7970 ca         1 QQ2      -0.099000
      9 C8          -5.7150     0.3910    -0.1920 ca         1 QQ2       0.295000
     10 C12         -7.0860     0.4340     1.7890 ca         1 QQ2      -0.095000
     11 C16         -4.8220    -1.1180    -1.8980 c3         1 QQ2       0.303900
     12 C13         -5.9750    -0.0350     1.1080 ca         1 QQ2       0.124000
     13 C20          1.5090    -0.1060    -0.7480 ca         1 QQ2       0.263000
     14 N2          -3.2440     1.2930     0.3160 nb         1 QQ2      -0.259000
     15 N6          -0.8780     1.1680     0.2430 nb         1 QQ2      -0.268000
     16 N7          -4.5970    -0.0900    -0.9170 nh         1 QQ2      -0.816100
     17 N18         -4.5030    -3.5420    -0.9580 n1         1 QQ2      -0.437000
     18 N19          0.1830    -0.4070    -1.0910 nu         1 QQ2      -0.937900
     19 C21          1.9680     1.1930    -0.5170 ca         1 QQ2      -0.093500
     20 C23          4.2160     0.3710    -0.1710 ca         1 QQ2       0.127100
     21 C24          3.7690    -0.9230    -0.4200 ca         1 QQ2      -0.153500
     22 C25          2.4260    -1.1490    -0.6960 ca         1 QQ2      -0.093500
     23 O26          5.4900     0.7010     0.1200 os         1 QQ2      -0.328100
     24 C27          6.4800    -0.3050     0.0890 c3         1 QQ2       0.129600
     25 C28          7.8300     0.3550     0.3410 c3         1 QQ2       0.165300
     26 C29          8.9170    -0.7190     0.3150 c3         1 QQ2       0.133800
     27 N30         10.1590    -0.3480     0.9660 n3         1 QQ2      -0.704600
     28 C31         10.9580    -1.5260     1.2400 c3         1 QQ2       0.145100
     29 C32         10.9410     0.6130     0.2130 c3         1 QQ2       0.145100
     30 O33          8.0490     1.4180    -0.5570 oh         1 QQ2      -0.635000
     31 CL1         -4.9040    -1.1480     1.8800 cl         1 QQ2      -0.180000
     32 H22          3.6400     2.4330    -0.0460 ha         1 QQ2       0.123500
     33 H1          -1.9640     2.4840     1.3670 h5         1 QQ2       0.047100
     34 H4          -2.2270    -1.1680    -1.7560 ha         1 QQ2       0.128000
     35 H11         -8.8160     1.6790     1.7080 ha         1 QQ2       0.118000
     36 H9          -6.3750     1.6090    -1.8060 ha         1 QQ2       0.121000
     37 H12         -7.2780     0.1080     2.8020 ha         1 QQ2       0.132000
     38 H161        -5.8400    -1.0390    -2.2800 h1         1 QQ2       0.081700
     39 H162        -4.1630    -0.9980    -2.7590 h1         1 QQ2       0.081700
     40 H19          0.0610    -1.2390    -1.6480 hn         1 QQ2       0.495000
     41 H21          1.2910     2.0310    -0.5700 ha         1 QQ2       0.125000
     42 H24          4.4380    -1.7710    -0.3920 ha         1 QQ2       0.123500
     43 H25          2.0950    -2.1650    -0.8740 ha         1 QQ2       0.125000
     44 H271         6.4850    -0.8160    -0.8840 h1         1 QQ2       0.034200
     45 H272         6.2910    -1.0620     0.8580 h1         1 QQ2       0.034200
     46 H28          7.8180     0.8020     1.3400 h1         1 QQ2       0.103700
     47 H291         9.0770    -1.0450    -0.7300 h1         1 QQ2       0.031700
     48 H292         8.5260    -1.5930     0.8450 h1         1 QQ2       0.031700
     49 H311        11.8610    -1.2420     1.7820 h1         1 QQ2       0.033867
     50 H312        10.4020    -2.2280     1.8630 h1         1 QQ2       0.033867
     51 H313        11.2740    -2.0600     0.3290 h1         1 QQ2       0.033867
     52 H321        10.4020     1.5490     0.0870 h1         1 QQ2       0.033867
     53 H322        11.8650     0.8310     0.7510 h1         1 QQ2       0.033867
     54 H323        11.2180     0.2450    -0.7880 h1         1 QQ2       0.033867
     55 H33          8.1660     1.0530    -1.4410 ho         1 QQ2       0.434000
     56 H331        -9.3720     2.1320    -1.4630 hc         1 QQ2       0.046033
     57 H332        -9.2670     3.2510    -0.1120 hc         1 QQ2       0.046033
     58 H333        -8.1470     3.3910    -1.4680 hc         1 QQ2       0.046033
     59 C33         -8.6750     2.6840    -0.8290 c3         1 QQ2      -0.047800
     60 C17         -4.6440    -2.4760    -1.3630 c1         1 QQ2       0.264900
@<TRIPOS>BOND
     1     1    19 ar  
     2     1    20 ar  
     3     1    32 1   
     4     2    14 ar  
     5     2    15 ar  
     6     2    33 1   
     7     3     4 ar  
     8     3    15 ar  
     9     3    18 1   
    10     4     5 ar  
    11     4    34 1   
    12     5    14 ar  
    13     5    16 1   
    14     6     7 ar  
    15     6    10 ar  
    16     6    35 1   
    17     7     8 ar  
    18     7    59 1   
    19     8     9 ar  
    20     8    36 1   
    21     9    12 ar  
    22     9    16 1   
    23    10    12 ar  
    24    10    37 1   
    25    11    16 1   
    26    11    38 1   
    27    11    39 1   
    28    11    60 1   
    29    12    31 1   
    30    13    18 1   
    31    13    19 ar  
    32    13    22 ar  
    33    17    60 3   
    34    18    40 1   
    35    19    41 1   
    36    20    21 ar  
    37    20    23 1   
    38    21    22 ar  
    39    21    42 1   
    40    22    43 1   
    41    23    24 1   
    42    24    25 1   
    43    24    44 1   
    44    24    45 1   
    45    25    26 1   
    46    25    30 1   
    47    25    46 1   
    48    26    27 1   
    49    26    47 1   
    50    26    48 1   
    51    27    28 1   
    52    27    29 1   
    53    28    49 1   
    54    28    50 1   
    55    28    51 1   
    56    29    52 1   
    57    29    53 1   
    58    29    54 1   
    59    30    55 1   
    60    56    59 1   
    61    57    59 1   
    62    58    59 1   
@<TRIPOS>SUBSTRUCTURE
     1 QQ2         1 TEMP              0 ****  ****    0 ROOT
