@<TRIPOS>MOLECULE
QQ3
   41    43     1     0     0
SMALL
No Charge or Current Charge


@<TRIPOS>ATOM
      1 C8           3.4200     3.4070     2.2350 c3         1 QQ3      -0.087100
      2 C7           2.6620     2.1120     1.8880 c3         1 QQ3      -0.075400
      3 C6           3.3650     1.2780     0.7900 c3         1 QQ3      -0.093400
      4 C5           2.6570    -0.0640     0.4650 c3         1 QQ3       0.144700
      5 C12          3.4270    -0.9440    -0.5490 c3         1 QQ3      -0.232400
      6 C18          2.8110    -2.3450    -0.6040 c          1 QQ3       0.720000
      7 O4           1.9260    -2.5540    -1.4180 o          1 QQ3      -0.734000
      8 O3           3.2060    -3.1750     0.1980 o          1 QQ3      -0.734000
      9 N1           1.2240     0.1000     0.1250 n          1 QQ3      -0.344400
     10 C4           0.7600     0.8050    -0.9890 c          1 QQ3       0.600600
     11 O1           1.4280     1.3920    -1.8280 o          1 QQ3      -0.504000
     12 C3          -0.7170     0.7010    -0.9260 ca         1 QQ3      -0.190600
     13 C10         -1.6950     1.2160    -1.7800 ca         1 QQ3       0.428300
     14 C14         -1.3640     2.0340    -3.0130 c3         1 QQ3      -0.146400
     15 N2          -3.0110     0.9990    -1.5300 nb         1 QQ3      -0.696000
     16 C11         -3.3770     0.2720    -0.4370 ca         1 QQ3       0.286000
     17 C15         -4.7440     0.0530    -0.1880 ca         1 QQ3      -0.097000
     18 C17         -5.1700    -0.6910     0.9270 ca         1 QQ3      -0.103000
     19 C16         -4.2250    -1.2290     1.8130 ca         1 QQ3      -0.130000
     20 C13         -2.8540    -1.0260     1.5890 ca         1 QQ3      -0.058000
     21 C9          -2.4260    -0.2800     0.4700 ca         1 QQ3      -0.047000
     22 C1          -1.0660    -0.0430     0.1920 ca         1 QQ3      -0.060600
     23 C2           0.1940    -0.4450     0.8940 c          1 QQ3       0.614600
     24 O2           0.3120    -1.0970     1.9220 o          1 QQ3      -0.494000
     25 H81C         4.4280     3.1810     2.6040 hc         1 QQ3       0.022700
     26 H82C         3.5100     4.0520     1.3520 hc         1 QQ3       0.022700
     27 H83C         2.8870     3.9650     3.0140 hc         1 QQ3       0.022700
     28 H71C         2.5590     1.5050     2.7970 hc         1 QQ3       0.038200
     29 H72C         1.6490     2.3770     1.5630 hc         1 QQ3       0.038200
     30 H61C         3.4490     1.8790    -0.1220 hc         1 QQ3       0.044200
     31 H62C         4.3900     1.0630     1.1160 hc         1 QQ3       0.044200
     32 H5           2.6930    -0.6250     1.4090 h1         1 QQ3       0.072700
     33 H121         3.3550    -0.4490    -1.5230 hc         1 QQ3       0.038200
     34 H122         4.4530    -1.0080    -0.1660 hc         1 QQ3       0.038200
     35 H141        -0.7430     1.4560    -3.7070 hc         1 QQ3       0.058033
     36 H142        -2.2660     2.3430    -3.5530 hc         1 QQ3       0.058033
     37 H143        -0.8130     2.9410    -2.7410 hc         1 QQ3       0.058033
     38 H15         -5.4840     0.4660    -0.8690 ha         1 QQ3       0.122000
     39 H17         -6.2320    -0.8480     1.1020 ha         1 QQ3       0.104000
     40 H16         -4.5550    -1.8040     2.6760 ha         1 QQ3       0.108000
     41 H13         -2.1400    -1.4520     2.2880 ha         1 QQ3       0.144000
@<TRIPOS>BOND
     1     1     2 1   
     2     1    25 1   
     3     1    26 1   
     4     1    27 1   
     5     2     3 1   
     6     2    28 1   
     7     2    29 1   
     8     3     4 1   
     9     3    30 1   
    10     3    31 1   
    11     4     5 1   
    12     4     9 1   
    13     4    32 1   
    14     5     6 1   
    15     5    33 1   
    16     5    34 1   
    17     6     7 1   
    18     6     8 1   
    19     9    10 1   
    20     9    23 1   
    21    10    11 2   
    22    10    12 1   
    23    12    13 ar  
    24    12    22 ar  
    25    13    14 1   
    26    13    15 ar  
    27    14    35 1   
    28    14    36 1   
    29    14    37 1   
    30    15    16 ar  
    31    16    17 ar  
    32    16    21 ar  
    33    17    18 ar  
    34    17    38 1   
    35    18    19 ar  
    36    18    39 1   
    37    19    20 ar  
    38    19    40 1   
    39    20    21 ar  
    40    20    41 1   
    41    21    22 ar  
    42    22    23 1   
    43    23    24 2   
@<TRIPOS>SUBSTRUCTURE
     1 QQ3         1 TEMP              0 ****  ****    0 ROOT
