@<TRIPOS>MOLECULE
QQ3
   41    43     1     0     0
SMALL
bcc


@<TRIPOS>ATOM
      1 C8           3.6560     3.3450     2.3050 c3         1 QQ3      -0.087100
      2 C7           2.7950     2.1330     1.9800 c3         1 QQ3      -0.075400
      3 C6           3.3770     1.3040     0.8430 c3         1 QQ3      -0.093400
      4 C5           2.6100     0.0170     0.5440 c3         1 QQ3       0.144700
      5 C12          3.2720    -0.8040    -0.5580 c3         1 QQ3      -0.232400
      6 C18          2.5290    -2.0750    -1.0130 c          1 QQ3       0.930600
      7 O4           3.0330    -2.6660    -1.9900 o          1 QQ3      -0.839300
      8 O3           1.5110    -2.4190    -0.3820 o          1 QQ3      -0.839300
      9 N1           1.2010     0.2770     0.2580 n          1 QQ3      -0.478400
     10 C4           0.7240     0.8430    -0.9060 c          1 QQ3       0.743100
     11 O1           1.3920     1.3690    -1.7640 o          1 QQ3      -0.579500
     12 C3          -0.7500     0.6770    -0.8800 ca         1 QQ3      -0.255900
     13 C10         -1.7400     1.0870    -1.7980 ca         1 QQ3       0.493600
     14 C14         -1.4070     1.8320    -3.0490 c3         1 QQ3      -0.146400
     15 N2          -2.9960     0.8070    -1.5510 nb         1 QQ3      -0.696000
     16 C11         -3.3520     0.1360    -0.4290 ca         1 QQ3       0.416600
     17 C15         -4.7240    -0.1330    -0.2290 ca         1 QQ3      -0.180300
     18 C17         -5.1400    -0.8050     0.8880 ca         1 QQ3      -0.121000
     19 C16         -4.2090    -1.2390     1.8560 ca         1 QQ3      -0.148000
     20 C13         -2.8730    -0.9970     1.6960 ca         1 QQ3      -0.076000
     21 C9          -2.4170    -0.3050     0.5510 ca         1 QQ3      -0.112300
     22 C1          -1.0810     0.0040     0.2570 ca         1 QQ3      -0.060600
     23 C2           0.1780    -0.2630     1.0130 c          1 QQ3       0.757100
     24 O2           0.2880    -0.7940     2.0880 o          1 QQ3      -0.569500
     25 H81C         4.6610     3.0480     2.6130 hc         1 QQ3       0.022700
     26 H82C         3.7580     3.9990     1.4370 hc         1 QQ3       0.022700
     27 H83C         3.2250     3.9370     3.1140 hc         1 QQ3       0.022700
     28 H71C         2.6870     1.5060     2.8710 hc         1 QQ3       0.038200
     29 H72C         1.7870     2.4680     1.7200 hc         1 QQ3       0.038200
     30 H61C         3.4550     1.9140    -0.0610 hc         1 QQ3       0.044200
     31 H62C         4.4000     1.0110     1.0990 hc         1 QQ3       0.044200
     32 H5           2.5990    -0.5810     1.4560 h1         1 QQ3       0.072700
     33 H121         3.4800    -0.1810    -1.4320 hc         1 QQ3       0.038200
     34 H122         4.2550    -1.1060    -0.1810 hc         1 QQ3       0.038200
     35 H141        -0.7470     1.2480    -3.6900 hc         1 QQ3       0.058033
     36 H142        -2.3170     2.0610    -3.5990 hc         1 QQ3       0.058033
     37 H143        -0.8890     2.7640    -2.8240 hc         1 QQ3       0.058033
     38 H15         -5.4310     0.2030    -0.9760 ha         1 QQ3       0.140000
     39 H17         -6.1920    -1.0080     1.0360 ha         1 QQ3       0.122000
     40 H16         -4.5600    -1.7680     2.7320 ha         1 QQ3       0.126000
     41 H13         -2.1640    -1.3310     2.4400 ha         1 QQ3       0.162000
@<TRIPOS>BOND
     1     1     2 1   
     2     1    25 1   
     3     1    26 1   
     4     1    27 1   
     5     2     3 1   
     6     2    28 1   
     7     2    29 1   
     8     3     4 1   
     9     3    30 1   
    10     3    31 1   
    11     4     5 1   
    12     4     9 1   
    13     4    32 1   
    14     5     6 1   
    15     5    33 1   
    16     5    34 1   
    17     6     7 1   
    18     6     8 1   
    19     9    10 1   
    20     9    23 1   
    21    10    11 2   
    22    10    12 1   
    23    12    13 ar  
    24    12    22 ar  
    25    13    14 1   
    26    13    15 ar  
    27    14    35 1   
    28    14    36 1   
    29    14    37 1   
    30    15    16 ar  
    31    16    17 ar  
    32    16    21 ar  
    33    17    18 ar  
    34    17    38 1   
    35    18    19 ar  
    36    18    39 1   
    37    19    20 ar  
    38    19    40 1   
    39    20    21 ar  
    40    20    41 1   
    41    21    22 ar  
    42    22    23 1   
    43    23    24 2   
@<TRIPOS>SUBSTRUCTURE
     1 QQ3         1 TEMP              0 ****  ****    0 ROOT
