@<TRIPOS>MOLECULE
QQ4
  104   109     1     0     0
SMALL
No Charge or Current Charge


@<TRIPOS>ATOM
      1 C12         48.8740    29.8700     9.4890 c3         1 QQ4       0.113000
      2 C11         48.3160    29.6920    10.9210 c3         1 QQ4      -0.096400
      3 C10         40.3810    38.0390    12.2380 c3         1 QQ4      -0.097100
      4 C01         46.8550    29.1670    11.0320 c3         1 QQ4       0.141700
      5 C02         45.7830    30.0890    10.3760 c3         1 QQ4      -0.108400
      6 C03         45.2460    31.2520    11.2550 c3         1 QQ4       0.123700
      7 C04         43.9960    31.9110    10.6130 c3         1 QQ4      -0.116400
      8 C05         43.1760    32.7710    11.6040 c3         1 QQ4       0.139700
      9 C06         42.2740    33.8280    10.9100 c3         1 QQ4      -0.097400
     10 C07         41.5490    34.8070    11.8740 c3         1 QQ4       0.125700
     11 C08         40.6060    35.7450    11.0720 c3         1 QQ4      -0.110400
     12 C09         39.7010    36.6860    11.9180 c3         1 QQ4       0.120700
     13 C19         49.5770    26.6660     7.7010 c5         1 QQ4      -0.169400
     14 C20         48.0250    26.6900     7.6920 c5         1 QQ4      -0.091400
     15 C21         47.7620    28.2230     7.7880 c5         1 QQ4       0.098000
     16 C22         45.3370    27.7060    12.5450 c5         1 QQ4       0.094000
     17 C23         46.9450    29.1620    13.6040 c          1 QQ4       0.580000
     18 C24         46.0040    28.5920    14.6580 c5         1 QQ4      -0.172400
     19 C25         45.5470    27.2580    14.0210 c5         1 QQ4      -0.090400
     20 C26         46.9650    33.1170    10.5750 c5         1 QQ4       0.096000
     21 C27         47.4370    34.3100    11.4600 c5         1 QQ4      -0.092400
     22 C28         47.7490    33.5780    12.7890 c5         1 QQ4      -0.169400
     23 C29         46.6070    32.5770    12.9000 c          1 QQ4       0.576000
     24 C30         41.4060    31.1000    12.3030 c          1 QQ4       0.559000
     25 C31         41.0370    30.4390    13.6270 c5         1 QQ4      -0.166400
     26 C32         41.4220    31.5190    14.6690 c5         1 QQ4      -0.097400
     27 C33         42.7700    32.0150    14.0670 c5         1 QQ4       0.102000
     28 C34         43.7790    36.1390    12.3060 c5         1 QQ4       0.092000
     29 C35         44.5690    36.1420    13.6480 c5         1 QQ4      -0.096400
     30 C36         43.4340    36.4910    14.6440 c5         1 QQ4      -0.168400
     31 C37         42.2520    35.6810    14.1200 c          1 QQ4       0.560000
     32 C38         38.2720    37.3580     9.8320 c5         1 QQ4       0.096000
     33 C39         37.2250    37.0360    11.9830 c          1 QQ4       0.561000
     34 C40         36.1490    37.3200    10.9410 c5         1 QQ4      -0.169400
     35 C41         36.9210    38.1380     9.8730 c5         1 QQ4      -0.092400
     36 C42         49.9350    27.7370     8.7260 c          1 QQ4       0.557000
     37 N02         48.8690    28.6390     8.6730 n          1 QQ4      -0.425800
     38 N03         46.3930    28.7310    12.3820 n          1 QQ4      -0.422800
     39 N04         46.2980    32.2500    11.5750 n          1 QQ4      -0.417800
     40 N05         42.4840    31.9380    12.6200 n          1 QQ4      -0.414800
     41 N06         42.4880    35.5590    12.7450 n          1 QQ4      -0.417800
     42 N07         38.4050    36.9240    11.2420 n          1 QQ4      -0.420800
     43 O02         48.0350    29.6870    13.7770 o          1 QQ4      -0.555000
     44 O03         45.9400    32.2830    13.8800 o          1 QQ4      -0.566000
     45 O04         40.7900    31.0860    11.2460 o          1 QQ4      -0.574000
     46 O06         41.3920    35.0830    14.7490 o          1 QQ4      -0.551000
     47 O07         37.1610    37.1150    13.2020 o          1 QQ4      -0.547000
     48 H1          49.9050    30.2420     9.5570 h1         1 QQ4       0.046700
     49 H2          48.2990    30.6400     8.9600 h1         1 QQ4       0.046700
     50 H3          48.9740    28.9840    11.4370 hc         1 QQ4       0.078200
     51 H4          48.4150    30.6470    11.4450 hc         1 QQ4       0.078200
     52 H5          41.2980    37.9100    12.8190 hc         1 QQ4       0.038033
     53 H6          40.6370    38.5770    11.3170 hc         1 QQ4       0.038033
     54 H7          39.7080    38.6740    12.8250 hc         1 QQ4       0.038033
     55 H8          46.8530    28.2460    10.4360 h1         1 QQ4       0.045700
     56 H9          46.1430    30.4860     9.4210 hc         1 QQ4       0.044700
     57 H10         44.9330    29.4450    10.1190 hc         1 QQ4       0.044700
     58 H11         44.9010    30.7970    12.1920 h1         1 QQ4       0.083700
     59 H12         44.3050    32.5210     9.7570 hc         1 QQ4       0.057200
     60 H13         43.3400    31.1370    10.2020 hc         1 QQ4       0.057200
     61 H14         43.9180    33.3570    12.1590 h1         1 QQ4       0.061700
     62 H15         41.5300    33.3160    10.2910 hc         1 QQ4       0.056700
     63 H16         42.8830    34.4080    10.2070 hc         1 QQ4       0.056700
     64 H17         40.9060    34.1860    12.5140 h1         1 QQ4       0.097700
     65 H18         39.9540    35.0990    10.4700 hc         1 QQ4       0.047700
     66 H19         41.1900    36.3370    10.3560 hc         1 QQ4       0.047700
     67 H20         39.4940    36.1750    12.8690 h1         1 QQ4       0.099700
     68 H21         50.0380    25.7020     7.9410 hc         1 QQ4       0.077200
     69 H22         49.9310    27.0080     6.7220 hc         1 QQ4       0.077200
     70 H23         47.6160    26.1660     8.5640 hc         1 QQ4       0.056700
     71 H24         47.5890    26.2380     6.7940 hc         1 QQ4       0.056700
     72 H25         47.8500    28.7110     6.8080 h1         1 QQ4       0.043700
     73 H26         46.7710    28.4490     8.2010 h1         1 QQ4       0.043700
     74 H27         44.3450    28.1540    12.3980 h1         1 QQ4       0.041700
     75 H28         45.4520    26.8720    11.8400 h1         1 QQ4       0.041700
     76 H29         45.1340    29.2550    14.7250 hc         1 QQ4       0.081700
     77 H30         46.4880    28.5110    15.6360 hc         1 QQ4       0.081700
     78 H31         44.6370    26.8480    14.4750 hc         1 QQ4       0.056200
     79 H32         46.3320    26.4960    14.0940 hc         1 QQ4       0.056200
     80 H33         46.2940    33.4480     9.7720 h1         1 QQ4       0.043700
     81 H34         47.8170    32.5980    10.1200 h1         1 QQ4       0.043700
     82 H35         48.3030    34.8340    11.0400 hc         1 QQ4       0.052700
     83 H36         46.6350    35.0440    11.5920 hc         1 QQ4       0.052700
     84 H37         48.6790    33.0140    12.6590 hc         1 QQ4       0.082700
     85 H38         47.8200    34.2150    13.6770 hc         1 QQ4       0.082700
     86 H39         39.9920    30.1120    13.6440 hc         1 QQ4       0.072200
     87 H40         41.6960    29.5740    13.7680 hc         1 QQ4       0.072200
     88 H41         40.6810    32.3260    14.6970 hc         1 QQ4       0.066700
     89 H42         41.5300    31.1260    15.6860 hc         1 QQ4       0.066700
     90 H43         43.5900    31.3350    14.3310 h1         1 QQ4       0.052700
     91 H44         43.0360    33.0270    14.3950 h1         1 QQ4       0.052700
     92 H45         44.2870    35.5470    11.5360 h1         1 QQ4       0.042200
     93 H46         43.6300    37.1560    11.9210 h1         1 QQ4       0.042200
     94 H47         44.9900    35.1520    13.8590 hc         1 QQ4       0.059700
     95 H48         45.3930    36.8650    13.6560 hc         1 QQ4       0.059700
     96 H49         43.1890    37.5530    14.5330 hc         1 QQ4       0.076700
     97 H50         43.6390    36.2740    15.6980 hc         1 QQ4       0.076700
     98 H51         38.2130    36.4870     9.1670 h1         1 QQ4       0.042200
     99 H52         39.1050    37.9930     9.5050 h1         1 QQ4       0.042200
    100 H53         35.2760    37.8160    11.3780 hc         1 QQ4       0.075700
    101 H54         35.8530    36.3670    10.4900 hc         1 QQ4       0.075700
    102 H55         37.0750    39.1720    10.2040 hc         1 QQ4       0.054700
    103 H56         36.4170    38.1680     8.9010 hc         1 QQ4       0.054700
    104 O05         50.8060    27.7290     9.5840 o          1 QQ4      -0.547000
@<TRIPOS>BOND
     1     1     2 1   
     2     1    37 1   
     3     1    48 1   
     4     1    49 1   
     5     2     4 1   
     6     2    50 1   
     7     2    51 1   
     8     3    12 1   
     9     3    52 1   
    10     3    53 1   
    11     3    54 1   
    12     4     5 1   
    13     4    38 1   
    14     4    55 1   
    15     5     6 1   
    16     5    56 1   
    17     5    57 1   
    18     6     7 1   
    19     6    39 1   
    20     6    58 1   
    21     7     8 1   
    22     7    59 1   
    23     7    60 1   
    24     8     9 1   
    25     8    40 1   
    26     8    61 1   
    27     9    10 1   
    28     9    62 1   
    29     9    63 1   
    30    10    11 1   
    31    10    41 1   
    32    10    64 1   
    33    11    12 1   
    34    11    65 1   
    35    11    66 1   
    36    12    42 1   
    37    12    67 1   
    38    13    14 1   
    39    13    36 1   
    40    13    68 1   
    41    13    69 1   
    42    14    15 1   
    43    14    70 1   
    44    14    71 1   
    45    15    37 1   
    46    15    72 1   
    47    15    73 1   
    48    16    19 1   
    49    16    38 1   
    50    16    74 1   
    51    16    75 1   
    52    17    18 1   
    53    17    38 1   
    54    17    43 2   
    55    18    19 1   
    56    18    76 1   
    57    18    77 1   
    58    19    78 1   
    59    19    79 1   
    60    20    21 1   
    61    20    39 1   
    62    20    80 1   
    63    20    81 1   
    64    21    22 1   
    65    21    82 1   
    66    21    83 1   
    67    22    23 1   
    68    22    84 1   
    69    22    85 1   
    70    23    39 1   
    71    23    44 2   
    72    24    25 1   
    73    24    40 1   
    74    24    45 2   
    75    25    26 1   
    76    25    86 1   
    77    25    87 1   
    78    26    27 1   
    79    26    88 1   
    80    26    89 1   
    81    27    40 1   
    82    27    90 1   
    83    27    91 1   
    84    28    29 1   
    85    28    41 1   
    86    28    92 1   
    87    28    93 1   
    88    29    30 1   
    89    29    94 1   
    90    29    95 1   
    91    30    31 1   
    92    30    96 1   
    93    30    97 1   
    94    31    41 1   
    95    31    46 2   
    96    32    35 1   
    97    32    42 1   
    98    32    98 1   
    99    32    99 1   
   100    33    34 1   
   101    33    42 1   
   102    33    47 2   
   103    34    35 1   
   104    34   100 1   
   105    34   101 1   
   106    35   102 1   
   107    35   103 1   
   108    36    37 1   
   109    36   104 2   
@<TRIPOS>SUBSTRUCTURE
     1 QQ4         1 TEMP              0 ****  ****    0 ROOT
