@<TRIPOS>MOLECULE
QQ4
  104   109     1     0     0
SMALL
bcc


@<TRIPOS>ATOM
      1 C12         48.6110    29.8250     9.1940 c3         1 QQ4       0.113000
      2 C11         48.3570    29.7970    10.7000 c3         1 QQ4      -0.096400
      3 C10         40.3360    37.8400    12.5340 c3         1 QQ4      -0.097100
      4 C01         46.9550    29.3090    11.0590 c3         1 QQ4       0.141700
      5 C02         45.7860    30.1700    10.5340 c3         1 QQ4      -0.108400
      6 C03         45.2680    31.3000    11.4220 c3         1 QQ4       0.123700
      7 C04         43.9800    31.8820    10.8240 c3         1 QQ4      -0.116400
      8 C05         43.1900    32.7550    11.8030 c3         1 QQ4       0.139700
      9 C06         42.3220    33.7730    11.0620 c3         1 QQ4      -0.097400
     10 C07         41.5120    34.6980    11.9710 c3         1 QQ4       0.125700
     11 C08         40.7660    35.7370    11.1280 c3         1 QQ4      -0.110400
     12 C09         39.7420    36.5890    11.8950 c3         1 QQ4       0.120700
     13 C19         48.7430    26.4510     7.6450 c5         1 QQ4      -0.169400
     14 C20         47.2980    26.8490     7.3650 c5         1 QQ4      -0.091400
     15 C21         47.2950    28.3630     7.5770 c5         1 QQ4       0.098000
     16 C22         45.6700    28.1290    12.8380 c5         1 QQ4       0.094000
     17 C23         47.4340    29.5020    13.5400 c          1 QQ4       0.722500
     18 C24         46.7740    28.9480    14.7860 c5         1 QQ4      -0.172400
     19 C25         45.9670    27.7570    14.2890 c5         1 QQ4      -0.090400
     20 C26         46.8990    33.0610    10.5730 c5         1 QQ4       0.096000
     21 C27         47.4560    34.3120    11.2540 c5         1 QQ4      -0.092400
     22 C28         47.6330    33.8770    12.7030 c5         1 QQ4      -0.169400
     23 C29         46.5810    32.8040    12.8830 c          1 QQ4       0.718500
     24 C30         41.3730    31.1920    12.4500 c          1 QQ4       0.701500
     25 C31         40.9220    30.4760    13.7060 c5         1 QQ4      -0.166400
     26 C32         41.6070    31.2470    14.8270 c5         1 QQ4      -0.097400
     27 C33         42.8560    31.7990    14.1480 c5         1 QQ4       0.102000
     28 C34         43.5440    36.0590    12.6830 c5         1 QQ4       0.092000
     29 C35         44.2820    36.1000    14.0200 c5         1 QQ4      -0.096400
     30 C36         43.1510    36.0330    15.0390 c5         1 QQ4      -0.168400
     31 C37         42.0520    35.2880    14.3110 c          1 QQ4       0.702500
     32 C38         38.8490    37.7380     9.8070 c5         1 QQ4       0.096000
     33 C39         37.3900    36.4890    11.1470 c          1 QQ4       0.703500
     34 C40         36.5750    37.0040     9.9780 c5         1 QQ4      -0.169400
     35 C41         37.4280    38.1290     9.4050 c5         1 QQ4      -0.092400
     36 C42         49.2490    27.5380     8.5690 c          1 QQ4       0.699500
     37 N02         48.3750    28.5620     8.5280 n          1 QQ4      -0.492800
     38 N03         46.7810    28.9910    12.4680 n          1 QQ4      -0.489800
     39 N04         46.2410    32.3500    11.6550 n          1 QQ4      -0.484800
     40 N05         42.4340    31.9620    12.7640 n          1 QQ4      -0.481800
     41 N06         42.3560    35.2830    12.9940 n          1 QQ4      -0.484800
     42 N07         38.6450    36.9620    11.0180 n          1 QQ4      -0.487800
     43 O02         48.3780    30.2720    13.5310 o          1 QQ4      -0.630500
     44 O03         46.1200    32.4190    13.9450 o          1 QQ4      -0.641500
     45 O04         40.8730    31.0720    11.3410 o          1 QQ4      -0.649500
     46 O06         41.0530    34.8000    14.8160 o          1 QQ4      -0.626500
     47 O07         36.9890    35.7540    12.0370 o          1 QQ4      -0.622500
     48 H1          49.6450    30.1370     9.0280 h1         1 QQ4       0.046700
     49 H2          47.9880    30.5750     8.7040 h1         1 QQ4       0.046700
     50 H3          49.0900    29.1310    11.1570 hc         1 QQ4       0.078200
     51 H4          48.5580    30.7930    11.0910 hc         1 QQ4       0.078200
     52 H5          41.0680    37.5930    13.3000 hc         1 QQ4       0.038033
     53 H6          40.8410    38.4670    11.7980 hc         1 QQ4       0.038033
     54 H7          39.5560    38.4330    13.0110 hc         1 QQ4       0.038033
     55 H8          46.8500    28.3440    10.5490 h1         1 QQ4       0.045700
     56 H9          46.0340    30.5570     9.5420 hc         1 QQ4       0.044700
     57 H10         44.9360    29.5030    10.3690 hc         1 QQ4       0.044700
     58 H11         45.0370    30.8850    12.4050 h1         1 QQ4       0.083700
     59 H12         44.2360    32.4710     9.9390 hc         1 QQ4       0.057200
     60 H13         43.3470    31.0710    10.4620 hc         1 QQ4       0.057200
     61 H14         43.9090    33.3190    12.4030 h1         1 QQ4       0.061700
     62 H15         41.6340    33.2650    10.3870 hc         1 QQ4       0.056700
     63 H16         42.9850    34.3650    10.4230 hc         1 QQ4       0.056700
     64 H17         40.7690    34.1000    12.5040 h1         1 QQ4       0.097700
     65 H18         40.2370    35.1740    10.3540 hc         1 QQ4       0.047700
     66 H19         41.4800    36.3810    10.6020 hc         1 QQ4       0.047700
     67 H20         39.2980    35.9740    12.6810 h1         1 QQ4       0.099700
     68 H21         48.8550    25.4650     8.0940 hc         1 QQ4       0.077200
     69 H22         49.3550    26.4650     6.7380 hc         1 QQ4       0.077200
     70 H23         46.6310    26.3760     8.0880 hc         1 QQ4       0.056700
     71 H24         46.9570    26.5740     6.3690 hc         1 QQ4       0.056700
     72 H25         47.4980    28.9070     6.6490 h1         1 QQ4       0.043700
     73 H26         46.3450    28.7260     7.9710 h1         1 QQ4       0.043700
     74 H27         44.7130    28.6560    12.7510 h1         1 QQ4       0.041700
     75 H28         45.6250    27.2650    12.1740 h1         1 QQ4       0.041700
     76 H29         46.1340    29.7350    15.1970 hc         1 QQ4       0.081700
     77 H30         47.5150    28.7040    15.5460 hc         1 QQ4       0.081700
     78 H31         45.0590    27.5730    14.8600 hc         1 QQ4       0.056200
     79 H32         46.5740    26.8510    14.3210 hc         1 QQ4       0.056200
     80 H33         46.1970    33.3030     9.7730 h1         1 QQ4       0.043700
     81 H34         47.6990    32.4610    10.1330 h1         1 QQ4       0.043700
     82 H35         48.3760    34.6540    10.7850 hc         1 QQ4       0.052700
     83 H36         46.7290    35.1240    11.1910 hc         1 QQ4       0.052700
     84 H37         48.6130    33.4230    12.8760 hc         1 QQ4       0.082700
     85 H38         47.5140    34.6780    13.4310 hc         1 QQ4       0.082700
     86 H39         39.8350    30.4510    13.7760 hc         1 QQ4       0.072200
     87 H40         41.2680    29.4390    13.6530 hc         1 QQ4       0.072200
     88 H41         40.9780    32.0750    15.1550 hc         1 QQ4       0.066700
     89 H42         41.8440    30.6360    15.6960 hc         1 QQ4       0.066700
     90 H43         43.6960    31.1020    14.2210 h1         1 QQ4       0.052700
     91 H44         43.1870    32.7460    14.5700 h1         1 QQ4       0.052700
     92 H45         44.1350    35.5890    11.8950 h1         1 QQ4       0.042200
     93 H46         43.2780    37.0620    12.3330 h1         1 QQ4       0.042200
     94 H47         44.9210    35.2200    14.1130 hc         1 QQ4       0.059700
     95 H48         44.9100    36.9830    14.1170 hc         1 QQ4       0.059700
     96 H49         42.7770    37.0290    15.2960 hc         1 QQ4       0.076700
     97 H50         43.4150    35.5350    15.9710 hc         1 QQ4       0.076700
     98 H51         39.3380    37.1330     9.0360 h1         1 QQ4       0.042200
     99 H52         39.4810    38.6060     9.9940 h1         1 QQ4       0.042200
    100 H53         35.5810    37.3130    10.2960 hc         1 QQ4       0.075700
    101 H54         36.4500    36.1840     9.2650 hc         1 QQ4       0.075700
    102 H55         37.1600    39.0770     9.8730 hc         1 QQ4       0.054700
    103 H56         37.3240    38.2480     8.3280 hc         1 QQ4       0.054700
    104 O05         50.2830    27.5190     9.2200 o          1 QQ4      -0.622500
@<TRIPOS>BOND
     1     1     2 1   
     2     1    37 1   
     3     1    48 1   
     4     1    49 1   
     5     2     4 1   
     6     2    50 1   
     7     2    51 1   
     8     3    12 1   
     9     3    52 1   
    10     3    53 1   
    11     3    54 1   
    12     4     5 1   
    13     4    38 1   
    14     4    55 1   
    15     5     6 1   
    16     5    56 1   
    17     5    57 1   
    18     6     7 1   
    19     6    39 1   
    20     6    58 1   
    21     7     8 1   
    22     7    59 1   
    23     7    60 1   
    24     8     9 1   
    25     8    40 1   
    26     8    61 1   
    27     9    10 1   
    28     9    62 1   
    29     9    63 1   
    30    10    11 1   
    31    10    41 1   
    32    10    64 1   
    33    11    12 1   
    34    11    65 1   
    35    11    66 1   
    36    12    42 1   
    37    12    67 1   
    38    13    14 1   
    39    13    36 1   
    40    13    68 1   
    41    13    69 1   
    42    14    15 1   
    43    14    70 1   
    44    14    71 1   
    45    15    37 1   
    46    15    72 1   
    47    15    73 1   
    48    16    19 1   
    49    16    38 1   
    50    16    74 1   
    51    16    75 1   
    52    17    18 1   
    53    17    38 1   
    54    17    43 2   
    55    18    19 1   
    56    18    76 1   
    57    18    77 1   
    58    19    78 1   
    59    19    79 1   
    60    20    21 1   
    61    20    39 1   
    62    20    80 1   
    63    20    81 1   
    64    21    22 1   
    65    21    82 1   
    66    21    83 1   
    67    22    23 1   
    68    22    84 1   
    69    22    85 1   
    70    23    39 1   
    71    23    44 2   
    72    24    25 1   
    73    24    40 1   
    74    24    45 2   
    75    25    26 1   
    76    25    86 1   
    77    25    87 1   
    78    26    27 1   
    79    26    88 1   
    80    26    89 1   
    81    27    40 1   
    82    27    90 1   
    83    27    91 1   
    84    28    29 1   
    85    28    41 1   
    86    28    92 1   
    87    28    93 1   
    88    29    30 1   
    89    29    94 1   
    90    29    95 1   
    91    30    31 1   
    92    30    96 1   
    93    30    97 1   
    94    31    41 1   
    95    31    46 2   
    96    32    35 1   
    97    32    42 1   
    98    32    98 1   
    99    32    99 1   
   100    33    34 1   
   101    33    42 1   
   102    33    47 2   
   103    34    35 1   
   104    34   100 1   
   105    34   101 1   
   106    35   102 1   
   107    35   103 1   
   108    36    37 1   
   109    36   104 2   
@<TRIPOS>SUBSTRUCTURE
     1 QQ4         1 TEMP              0 ****  ****    0 ROOT
