@<TRIPOS>MOLECULE
QQ5
   54    57     1     0     0
SMALL
bcc


@<TRIPOS>ATOM
      1 C4          10.2230   -16.0740    12.3080 c          1 QQ5       0.688700
      2 C7           8.5990   -17.0060    10.7470 c6         1 QQ5       0.097000
      3 C8           7.1030   -16.7260    10.7630 c6         1 QQ5      -0.132400
      4 C10          7.5670   -14.2620    10.6560 c6         1 QQ5      -0.072700
      5 C13          9.8330   -14.0070    13.6560 ca         1 QQ5      -0.207000
      6 C15         11.6450   -12.7780    14.5020 ca         1 QQ5      -0.018900
      7 C17         13.6410   -12.1320    14.9240 cc         1 QQ5       0.775500
      8 C20         15.9670   -11.5440    15.1920 c3         1 QQ5       0.292100
      9 C21         16.3540   -11.1050    13.8000 ca         1 QQ5      -0.104300
     10 C22         15.9600    -9.8570    13.3290 ca         1 QQ5      -0.112000
     11 C24         17.1140   -10.2650    11.2420 ca         1 QQ5      -0.114000
     12 C26         17.1230   -11.9280    12.9860 ca         1 QQ5      -0.098000
     13 C11          9.0510   -14.6240    10.6570 c6         1 QQ5       0.102000
     14 C30          7.3580   -12.9550     9.9020 c3         1 QQ5      -0.084100
     15 C9           6.7760   -15.4180    10.0500 c6         1 QQ5       0.152100
     16 O12          5.4030   -15.1080    10.1230 oh         1 QQ5      -0.594800
     17 N6           9.3060   -15.8820    11.3370 n          1 QQ5      -0.479800
     18 O5          10.6140   -17.1840    12.6460 o          1 QQ5      -0.591100
     19 C3          10.7420   -14.8660    13.0250 ca         1 QQ5      -0.109600
     20 C2          12.1160   -14.7010    13.1360 ca         1 QQ5      -0.082000
     21 C14         10.2710   -12.9300    14.4240 ca         1 QQ5       0.170100
     22 O28          9.4950   -12.0550    15.0780 os         1 QQ5      -0.301900
     23 C29          8.0910   -12.1970    14.9600 c3         1 QQ5       0.122700
     24 O16         12.3490   -11.8220    15.1730 os         1 QQ5      -0.289700
     25 C1          12.5600   -13.6160    13.8830 ca         1 QQ5       0.130400
     26 N18         13.8340   -13.1700    14.1700 nd         1 QQ5      -0.652100
     27 C23         16.3420    -9.4540    12.0600 ca         1 QQ5       0.027400
     28 CL1         15.8440    -7.8940    11.4840 cl         1 QQ5      -0.115400
     29 C25         17.5030   -11.5070    11.7190 ca         1 QQ5      -0.120000
     30 H1           8.8310   -17.9130    11.2980 h1         1 QQ5       0.060200
     31 H2           8.9460   -17.1520     9.7170 h1         1 QQ5       0.060200
     32 H3           6.7540   -16.6770    11.7990 hc         1 QQ5       0.055200
     33 H4           6.5820   -17.5580    10.2810 hc         1 QQ5       0.055200
     34 H5           7.2430   -14.1320    11.6970 hc         1 QQ5       0.062700
     35 H6           8.7740   -14.2040    13.5520 ha         1 QQ5       0.145000
     36 H7          16.2380   -12.5910    15.3370 h1         1 QQ5       0.067200
     37 H8          16.5250   -10.9690    15.9310 h1         1 QQ5       0.067200
     38 H9          15.3540    -9.2030    13.9440 ha         1 QQ5       0.141000
     39 H10         17.4040    -9.9370    10.2530 ha         1 QQ5       0.148000
     40 H11         17.4240   -12.9050    13.3410 ha         1 QQ5       0.141000
     41 H12          9.3960   -14.7210     9.6200 h1         1 QQ5       0.054700
     42 H13          9.6350   -13.8250    11.1060 h1         1 QQ5       0.054700
     43 H14          7.9370   -12.1480    10.3530 hc         1 QQ5       0.040367
     44 H15          7.6760   -13.0510     8.8610 hc         1 QQ5       0.040367
     45 H16          6.3130   -12.6520     9.9060 hc         1 QQ5       0.040367
     46 H17          7.0950   -15.5180     8.9980 h1         1 QQ5       0.027700
     47 H18          4.9110   -15.8160     9.6950 ho         1 QQ5       0.405000
     48 H19         12.8100   -15.3770    12.6550 ha         1 QQ5       0.165000
     49 H20          7.6500   -11.3900    15.5400 h1         1 QQ5       0.044700
     50 H21          7.7610   -12.1050    13.9210 h1         1 QQ5       0.044700
     51 H22          7.7440   -13.1520    15.3600 h1         1 QQ5       0.044700
     52 H23         14.2750   -10.5540    16.0170 hn         1 QQ5       0.458800
     53 H24         18.1010   -12.1540    11.0910 ha         1 QQ5       0.138000
     54 N19         14.5670   -11.3590    15.4890 nu         1 QQ5      -0.838200
@<TRIPOS>BOND
     1     1    17 1   
     2     1    18 2   
     3     1    19 1   
     4     2     3 1   
     5     2    17 1   
     6     2    30 1   
     7     2    31 1   
     8     3    15 1   
     9     3    32 1   
    10     3    33 1   
    11     4    13 1   
    12     4    14 1   
    13     4    15 1   
    14     4    34 1   
    15     5    19 ar  
    16     5    21 ar  
    17     5    35 1   
    18     6    21 ar  
    19     6    24 1   
    20     6    25 ar  
    21     7    24 1   
    22     7    26 2   
    23     7    54 1   
    24     8     9 1   
    25     8    36 1   
    26     8    37 1   
    27     8    54 1   
    28     9    10 ar  
    29     9    12 ar  
    30    10    27 ar  
    31    10    38 1   
    32    11    27 ar  
    33    11    29 ar  
    34    11    39 1   
    35    12    29 ar  
    36    12    40 1   
    37    13    17 1   
    38    13    41 1   
    39    13    42 1   
    40    14    43 1   
    41    14    44 1   
    42    14    45 1   
    43    15    16 1   
    44    15    46 1   
    45    16    47 1   
    46    19    20 ar  
    47    20    25 ar  
    48    20    48 1   
    49    21    22 1   
    50    22    23 1   
    51    23    49 1   
    52    23    50 1   
    53    23    51 1   
    54    25    26 1   
    55    27    28 1   
    56    29    53 1   
    57    52    54 1   
@<TRIPOS>SUBSTRUCTURE
     1 QQ5         1 TEMP              0 ****  ****    0 ROOT
