@<TRIPOS>MOLECULE
QQ5
   54    57     1     0     0
SMALL
No Charge or Current Charge


@<TRIPOS>ATOM
      1 C4          10.1820   -16.1210    12.2940 c          1 QQ5       0.621700
      2 C7           8.2300   -17.2310    11.2030 c6         1 QQ5       0.097000
      3 C8           6.7290   -17.0090    10.9110 c6         1 QQ5      -0.132400
      4 C10          7.1900   -14.5640    10.4610 c6         1 QQ5      -0.072700
      5 C13          9.8870   -13.9080    13.5730 ca         1 QQ5      -0.189000
      6 C15         11.8190   -12.7510    14.4310 ca         1 QQ5      -0.018900
      7 C17         13.8200   -12.2850    14.8990 cc         1 QQ5       0.775500
      8 C20         16.2770   -11.7930    15.0860 c3         1 QQ5       0.292100
      9 C21         16.6610   -10.9460    13.8800 ca         1 QQ5      -0.104300
     10 C22         17.1640    -9.6410    14.0550 ca         1 QQ5      -0.094000
     11 C24         17.3630    -9.3760    11.6420 ca         1 QQ5      -0.096000
     12 C26         16.5110   -11.4580    12.5740 ca         1 QQ5      -0.080000
     13 C11          8.6880   -14.8340    10.7530 c6         1 QQ5       0.102000
     14 C30          7.0310   -13.3530     9.4980 c3         1 QQ5      -0.084100
     15 C9           6.5120   -15.8500     9.9190 c6         1 QQ5       0.175300
     16 O12          5.1080   -15.6460     9.7330 oh         1 QQ5      -0.657000
     17 N6           8.9240   -15.9960    11.6610 n          1 QQ5      -0.412800
     18 O5          10.7660   -17.1980    12.3260 o          1 QQ5      -0.591100
     19 C3          10.7370   -14.9180    13.0340 ca         1 QQ5      -0.109600
     20 C2          12.1360   -14.8240    13.2440 ca         1 QQ5      -0.064000
     21 C14         10.4270   -12.8020    14.2740 ca         1 QQ5       0.170100
     22 O28          9.6490   -11.7910    14.8040 os         1 QQ5      -0.325100
     23 C29          8.2180   -11.7730    14.6590 c3         1 QQ5       0.145900
     24 O16         12.5420   -11.7920    15.0670 os         1 QQ5      -0.289700
     25 C1          12.6430   -13.7220    13.9420 ca         1 QQ5       0.130400
     26 N18         13.9590   -13.4370    14.2400 nd         1 QQ5      -0.652100
     27 C23         17.5130    -8.8610    12.9400 ca         1 QQ5       0.119000
     28 Cl1         18.1400    -7.2330    13.1700 cl         1 QQ5      -0.207000
     29 C25         16.8610   -10.6760    11.4590 ca         1 QQ5      -0.102000
     30 H1           8.3270   -18.0140    11.9700 h1         1 QQ5       0.060200
     31 H2           8.7270   -17.6020    10.2940 h1         1 QQ5       0.060200
     32 H3           6.2080   -16.7950    11.8540 hc         1 QQ5       0.055200
     33 H4           6.2940   -17.9360    10.5140 hc         1 QQ5       0.055200
     34 H5           6.7030   -14.2790    11.4040 hc         1 QQ5       0.062700
     35 H6           8.8110   -14.0040    13.4540 ha         1 QQ5       0.127000
     36 H7          16.4830   -12.8520    14.8740 h1         1 QQ5       0.067200
     37 H8          16.9040   -11.5110    15.9440 h1         1 QQ5       0.067200
     38 H9          17.2840    -9.2290    15.0550 ha         1 QQ5       0.123000
     39 H10         17.6350    -8.7700    10.7820 ha         1 QQ5       0.130000
     40 H11         16.1200   -12.4630    12.4240 ha         1 QQ5       0.123000
     41 H12          9.2020   -15.0360     9.8020 h1         1 QQ5       0.054700
     42 H13          9.1420   -13.9200    11.1570 h1         1 QQ5       0.054700
     43 H14          7.5260   -12.4610     9.9000 hc         1 QQ5       0.040367
     44 H15          7.4700   -13.5630     8.5150 hc         1 QQ5       0.040367
     45 H16          5.9760   -13.0960     9.3440 hc         1 QQ5       0.040367
     46 H17          6.9800   -16.1170     8.9590 h1         1 QQ5       0.027700
     47 H18          4.7520   -16.4750     9.3460 ho         1 QQ5       0.444000
     48 H19         12.8140   -15.5850    12.8650 ha         1 QQ5       0.147000
     49 H20          7.7980   -10.8820    15.1430 h1         1 QQ5       0.044700
     50 H21          7.9330   -11.7510    13.6000 h1         1 QQ5       0.044700
     51 H22          7.7670   -12.6570    15.1270 h1         1 QQ5       0.044700
     52 H23         14.5800   -10.6810    15.7710 hn         1 QQ5       0.514000
     53 H24         16.7430   -11.0780    10.4550 ha         1 QQ5       0.120000
     54 N19         14.8620   -11.5870    15.4100 nu         1 QQ5      -0.893400
@<TRIPOS>BOND
     1     1    17 1   
     2     1    18 2   
     3     1    19 1   
     4     2     3 1   
     5     2    17 1   
     6     2    30 1   
     7     2    31 1   
     8     3    15 1   
     9     3    32 1   
    10     3    33 1   
    11     4    13 1   
    12     4    14 1   
    13     4    15 1   
    14     4    34 1   
    15     5    19 ar  
    16     5    21 ar  
    17     5    35 1   
    18     6    21 ar  
    19     6    24 1   
    20     6    25 ar  
    21     7    24 1   
    22     7    26 2   
    23     7    54 1   
    24     8     9 1   
    25     8    36 1   
    26     8    37 1   
    27     8    54 1   
    28     9    10 ar  
    29     9    12 ar  
    30    10    27 ar  
    31    10    38 1   
    32    11    27 ar  
    33    11    29 ar  
    34    11    39 1   
    35    12    29 ar  
    36    12    40 1   
    37    13    17 1   
    38    13    41 1   
    39    13    42 1   
    40    14    43 1   
    41    14    44 1   
    42    14    45 1   
    43    15    16 1   
    44    15    46 1   
    45    16    47 1   
    46    19    20 ar  
    47    20    25 ar  
    48    20    48 1   
    49    21    22 1   
    50    22    23 1   
    51    23    49 1   
    52    23    50 1   
    53    23    51 1   
    54    25    26 1   
    55    27    28 1   
    56    29    53 1   
    57    52    54 1   
@<TRIPOS>SUBSTRUCTURE
     1 QQ5         1 TEMP              0 ****  ****    0 ROOT
