@<TRIPOS>MOLECULE
QQ6
   39    42     1     0     0
SMALL
abcg2


@<TRIPOS>ATOM
      1 N1         -16.8150     4.1090    25.2570 nb         1 QQ6      -0.652000
      2 C4         -22.3300     7.5100    28.9330 c6         1 QQ6       0.046600
      3 C5         -22.7070     6.3870    27.9830 c6         1 QQ6      -0.066400
      4 C6         -21.9290     5.0880    28.2560 c6         1 QQ6      -0.093400
      5 C7         -20.4460     5.3000    27.9440 c          1 QQ6       0.596100
      6 C8         -18.7870     5.1660    26.1450 ca         1 QQ6      -0.078000
      7 C10        -16.2700     5.2920    25.0900 ca         1 QQ6       0.360900
      8 C13        -16.9600     8.9220    25.5030 ca         1 QQ6      -0.106000
      9 C15        -18.8970     7.6680    26.2470 ca         1 QQ6      -0.089000
     10 C17        -22.1040     4.5640    29.6630 ca         1 QQ6      -0.072300
     11 O          -19.6530     5.7440    28.7640 o          1 QQ6      -0.559100
     12 S          -22.7390     7.1140    30.6620 ss         1 QQ6      -0.162000
     13 C3         -22.4280     5.3760    30.7560 ca         1 QQ6      -0.055000
     14 C2         -22.5620     4.8020    32.0270 ca         1 QQ6      -0.093000
     15 C1         -22.3750     3.4460    32.2270 ca         1 QQ6      -0.082000
     16 C18        -21.9180     3.1960    29.8730 ca         1 QQ6      -0.084000
     17 C          -22.0510     2.6490    31.1360 ca         1 QQ6       0.118000
     18 CL         -21.8090     0.9270    31.3630 cl         1 QQ6      -0.209000
     19 N          -20.0970     5.0030    26.6660 ns         1 QQ6      -0.172000
     20 C16        -18.2280     6.4570    25.9550 ca         1 QQ6      -0.001000
     21 C14        -18.2720     8.8690    26.0240 ca         1 QQ6      -0.091000
     22 C12        -16.2930     7.7640    25.2000 ca         1 QQ6      -0.083000
     23 C11        -16.9120     6.5100    25.4150 ca         1 QQ6      -0.091000
     24 C9         -18.0620     4.0560    25.7890 ca         1 QQ6       0.312900
     25 H2         -22.8970     8.4130    28.7110 h1         1 QQ6       0.082700
     26 H3         -22.5110     6.7100    26.9580 hc         1 QQ6       0.060700
     27 H4         -23.7740     6.1740    28.0610 hc         1 QQ6       0.060700
     28 H5         -22.3120     4.3300    27.5700 hc         1 QQ6       0.064700
     29 H6         -15.2670     5.3240    24.6740 h4         1 QQ6       0.022100
     30 H7         -16.4890     9.8830    25.3390 ha         1 QQ6       0.118000
     31 H8         -19.9020     7.6420    26.6400 ha         1 QQ6       0.118000
     32 H9         -22.8150     5.4310    32.8720 ha         1 QQ6       0.130000
     33 H10        -22.4800     3.0150    33.2130 ha         1 QQ6       0.133000
     34 H11        -21.6710     2.5610    29.0320 ha         1 QQ6       0.123000
     35 H12        -20.7740     4.5330    26.0840 hn         1 QQ6       0.155000
     36 H13        -18.7910     9.7920    26.2490 ha         1 QQ6       0.116000
     37 H14        -15.2900     7.7890    24.7920 ha         1 QQ6       0.119000
     38 H15        -18.4890     3.0700    25.9290 h4         1 QQ6       0.022100
     39 H1         -21.2690     7.7430    28.8670 h1         1 QQ6       0.082700
@<TRIPOS>BOND
     1     1     7 ar  
     2     1    24 ar  
     3     2     3 1   
     4     2    12 1   
     5     2    25 1   
     6     2    39 1   
     7     3     4 1   
     8     3    26 1   
     9     3    27 1   
    10     4     5 1   
    11     4    10 1   
    12     4    28 1   
    13     5    11 2   
    14     5    19 1   
    15     6    19 1   
    16     6    20 ar  
    17     6    24 ar  
    18     7    23 ar  
    19     7    29 1   
    20     8    21 ar  
    21     8    22 ar  
    22     8    30 1   
    23     9    20 ar  
    24     9    21 ar  
    25     9    31 1   
    26    10    13 ar  
    27    10    16 ar  
    28    12    13 1   
    29    13    14 ar  
    30    14    15 ar  
    31    14    32 1   
    32    15    17 ar  
    33    15    33 1   
    34    16    17 ar  
    35    16    34 1   
    36    17    18 1   
    37    19    35 1   
    38    20    23 ar  
    39    21    36 1   
    40    22    23 ar  
    41    22    37 1   
    42    24    38 1   
@<TRIPOS>SUBSTRUCTURE
     1 QQ6         1 TEMP              0 ****  ****    0 ROOT
