@<TRIPOS>MOLECULE
QQ6
   39    42     1     0     0
SMALL
No Charge or Current Charge


@<TRIPOS>ATOM
      1 N1         -17.0210     4.1080    24.8070 nb         1 QQ6      -0.652000
      2 C4         -22.6800     7.4510    28.8230 c6         1 QQ6       0.046600
      3 C5         -22.8630     6.2520    27.8810 c6         1 QQ6      -0.066400
      4 C6         -21.9450     5.0720    28.2910 c6         1 QQ6      -0.093400
      5 C7         -20.4620     5.3610    27.9530 c          1 QQ6       0.596100
      6 C8         -18.8230     5.2160    26.0170 ca         1 QQ6      -0.078000
      7 C10        -16.3630     5.2890    24.7620 ca         1 QQ6       0.360900
      8 C13        -16.6930     8.8740    25.7220 ca         1 QQ6      -0.106000
      9 C15        -18.6820     7.6650    26.4420 ca         1 QQ6      -0.089000
     10 C17        -22.1110     4.5780    29.7410 ca         1 QQ6      -0.072300
     11 O          -19.6670     5.7730    28.7920 o          1 QQ6      -0.559100
     12 S          -23.2390     7.0570    30.5290 ss         1 QQ6      -0.162000
     13 C3         -22.6510     5.3800    30.7810 ca         1 QQ6      -0.055000
     14 C2         -22.7630     4.8530    32.0820 ca         1 QQ6      -0.093000
     15 C1         -22.3390     3.5440    32.3630 ca         1 QQ6      -0.082000
     16 C18        -21.6900     3.2640    30.0380 ca         1 QQ6      -0.084000
     17 C          -21.8030     2.7520    31.3390 ca         1 QQ6       0.118000
     18 Cl         -21.2700     1.1110    31.6860 cl         1 QQ6      -0.209000
     19 N          -20.0820     5.0520    26.6550 ns         1 QQ6      -0.172000
     20 C16        -18.1430     6.4580    25.9410 ca         1 QQ6      -0.001000
     21 C14        -17.9560     8.8640    26.3360 ca         1 QQ6      -0.091000
     22 C12        -16.1570     7.6850    25.2020 ca         1 QQ6      -0.083000
     23 C11        -16.8820     6.4820    25.3040 ca         1 QQ6      -0.091000
     24 C9         -18.2250     4.0860    25.4190 ca         1 QQ6       0.312900
     25 H2         -23.2620     8.3130    28.4670 h1         1 QQ6       0.082700
     26 H3         -22.6510     6.5580    26.8460 hc         1 QQ6       0.060700
     27 H4         -23.9150     5.9320    27.8980 hc         1 QQ6       0.060700
     28 H5         -22.2530     4.2730    27.6020 hc         1 QQ6       0.064700
     29 H6         -15.3940     5.2800    24.2630 h4         1 QQ6       0.022100
     30 H7         -16.1340     9.8040    25.6410 ha         1 QQ6       0.118000
     31 H8         -19.6630     7.6950    26.9040 ha         1 QQ6       0.118000
     32 H9         -23.1810     5.4630    32.8790 ha         1 QQ6       0.130000
     33 H10        -22.4280     3.1450    33.3700 ha         1 QQ6       0.133000
     34 H11        -21.2710     2.6350    29.2570 ha         1 QQ6       0.123000
     35 H12        -20.8060     4.6420    26.0780 hn         1 QQ6       0.155000
     36 H13        -18.3750     9.7890    26.7270 ha         1 QQ6       0.116000
     37 H14        -15.1830     7.7010    24.7160 ha         1 QQ6       0.119000
     38 H15        -18.7260     3.1190    25.4480 h4         1 QQ6       0.022100
     39 H1         -21.6240     7.7510    28.8680 h1         1 QQ6       0.082700
@<TRIPOS>BOND
     1     1     7 ar  
     2     1    24 ar  
     3     2     3 1   
     4     2    12 1   
     5     2    25 1   
     6     2    39 1   
     7     3     4 1   
     8     3    26 1   
     9     3    27 1   
    10     4     5 1   
    11     4    10 1   
    12     4    28 1   
    13     5    11 2   
    14     5    19 1   
    15     6    19 1   
    16     6    20 ar  
    17     6    24 ar  
    18     7    23 ar  
    19     7    29 1   
    20     8    21 ar  
    21     8    22 ar  
    22     8    30 1   
    23     9    20 ar  
    24     9    21 ar  
    25     9    31 1   
    26    10    13 ar  
    27    10    16 ar  
    28    12    13 1   
    29    13    14 ar  
    30    14    15 ar  
    31    14    32 1   
    32    15    17 ar  
    33    15    33 1   
    34    16    17 ar  
    35    16    34 1   
    36    17    18 1   
    37    19    35 1   
    38    20    23 ar  
    39    21    36 1   
    40    22    23 ar  
    41    22    37 1   
    42    24    38 1   
@<TRIPOS>SUBSTRUCTURE
     1 QQ6         1 TEMP              0 ****  ****    0 ROOT
