@<TRIPOS>MOLECULE
QQ8
   24    23     1     0     0
SMALL
No Charge or Current Charge


@<TRIPOS>ATOM
      1 OCA          1.3650   -13.3520    -2.8660 o          1 QQ8      -0.603100
      2 CAO          1.7340   -13.5280    -4.0200 c          1 QQ8       0.593900
      3 NM           1.8500   -14.7800    -4.5840 ns         1 QQ8      -0.520900
      4 CM           1.5290   -16.0430    -3.8980 c3         1 QQ8       0.100000
      5 CAA          0.0000   -16.3040    -3.7660 c3         1 QQ8       0.138500
      6 NA          -0.6520   -16.3340    -5.0960 n8         1 QQ8      -0.997200
      7 CB          -0.2970   -17.6030    -2.9760 c3         1 QQ8      -0.063400
      8 CG          -1.8010   -17.8470    -2.6780 c3         1 QQ8      -0.160400
      9 CD          -1.9990   -19.0850    -1.7990 c          1 QQ8       0.605100
     10 OE1         -2.0300   -20.2210    -2.2390 o          1 QQ8      -0.603100
     11 NE2         -2.1410   -18.8590    -0.4760 nt         1 QQ8      -0.614000
     12 H1           2.0110   -12.7160    -4.7180 h5         1 QQ8       0.005200
     13 H2           2.1680   -14.8180    -5.5460 hn         1 QQ8       0.317500
     14 H3           1.9920   -16.8690    -4.4530 h1         1 QQ8       0.061700
     15 H4           1.9800   -16.0220    -2.8970 h1         1 QQ8       0.061700
     16 H5          -0.4340   -15.4630    -3.2070 h1         1 QQ8       0.033700
     17 H6          -1.6700   -16.3250    -4.9670 hn         1 QQ8       0.391000
     18 H7          -0.4600   -15.4450    -5.5720 hn         1 QQ8       0.391000
     19 H9           0.1090   -18.4630    -3.5240 hc         1 QQ8       0.063700
     20 H10          0.2440   -17.5600    -2.0220 hc         1 QQ8       0.063700
     21 H11         -2.1840   -16.9610    -2.1560 hc         1 QQ8       0.054700
     22 H12         -2.3380   -17.9950    -3.6230 hc         1 QQ8       0.054700
     23 H13         -2.2740   -19.6420     0.1470 hn         1 QQ8       0.312500
     24 H14         -2.1140   -17.9160    -0.1180 hn         1 QQ8       0.312500
@<TRIPOS>BOND
     1     1     2 2   
     2     2     3 1   
     3     2    12 1   
     4     3     4 1   
     5     3    13 1   
     6     4     5 1   
     7     4    14 1   
     8     4    15 1   
     9     5     6 1   
    10     5     7 1   
    11     5    16 1   
    12     6    17 1   
    13     6    18 1   
    14     7     8 1   
    15     7    19 1   
    16     7    20 1   
    17     8     9 1   
    18     8    21 1   
    19     8    22 1   
    20     9    10 2   
    21     9    11 1   
    22    11    23 1   
    23    11    24 1   
@<TRIPOS>SUBSTRUCTURE
     1 QQ8         1 TEMP              0 ****  ****    0 ROOT
