@<TRIPOS>MOLECULE
QQ8
   24    23     1     0     0
SMALL
abcg2


@<TRIPOS>ATOM
      1 OCA          1.7440   -13.3800    -2.9450 o          1 QQ8      -0.603100
      2 CAO          1.8710   -13.6010    -4.1370 c          1 QQ8       0.593900
      3 NM           1.7740   -14.8040    -4.7170 ns         1 QQ8      -0.520900
      4 CM           1.4910   -16.0250    -3.9940 c3         1 QQ8       0.100000
      5 CAA          0.0080   -16.2310    -3.6910 c3         1 QQ8       0.138500
      6 NA          -0.7350   -16.2490    -4.9440 n8         1 QQ8      -0.997200
      7 CB          -0.1630   -17.5480    -2.9430 c3         1 QQ8      -0.063400
      8 CG          -1.5920   -17.7920    -2.4730 c3         1 QQ8      -0.160400
      9 CD          -1.7380   -19.0670    -1.6670 c          1 QQ8       0.605100
     10 OE1         -1.0860   -20.0720    -1.9110 o          1 QQ8      -0.603100
     11 NE2         -2.6550   -19.0170    -0.6870 nt         1 QQ8      -0.614000
     12 H1           2.0920   -12.8070    -4.8670 h5         1 QQ8       0.005200
     13 H2           1.8970   -14.8510    -5.7150 hn         1 QQ8       0.317500
     14 H3           1.8550   -16.8570    -4.6010 h1         1 QQ8       0.061700
     15 H4           2.0580   -16.0300    -3.0620 h1         1 QQ8       0.061700
     16 H5          -0.3110   -15.4170    -3.0220 h1         1 QQ8       0.033700
     17 H6          -1.7280   -16.3050    -4.7560 hn         1 QQ8       0.391000
     18 H7          -0.6120   -15.3610    -5.4170 hn         1 QQ8       0.391000
     19 H9           0.1640   -18.3680    -3.5870 hc         1 QQ8       0.063700
     20 H10          0.5010   -17.5410    -2.0740 hc         1 QQ8       0.063700
     21 H11         -1.9500   -16.9330    -1.8980 hc         1 QQ8       0.054700
     22 H12         -2.2680   -17.8860    -3.3290 hc         1 QQ8       0.054700
     23 H13         -2.8530   -19.8320    -0.1300 hn         1 QQ8       0.312500
     24 H14         -3.1750   -18.1800    -0.4860 hn         1 QQ8       0.312500
@<TRIPOS>BOND
     1     1     2 2   
     2     2     3 1   
     3     2    12 1   
     4     3     4 1   
     5     3    13 1   
     6     4     5 1   
     7     4    14 1   
     8     4    15 1   
     9     5     6 1   
    10     5     7 1   
    11     5    16 1   
    12     6    17 1   
    13     6    18 1   
    14     7     8 1   
    15     7    19 1   
    16     7    20 1   
    17     8     9 1   
    18     8    21 1   
    19     8    22 1   
    20     9    10 2   
    21     9    11 1   
    22    11    23 1   
    23    11    24 1   
@<TRIPOS>SUBSTRUCTURE
     1 QQ8         1 TEMP              0 ****  ****    0 ROOT
