@<TRIPOS>MOLECULE
QQ9
   34    36     1     0     0
SMALL
abcg2


@<TRIPOS>ATOM
      1 C16        -44.5910   -29.8100     7.0130 ca         1 QQ9       0.353900
      2 C17        -44.1060   -29.8650     5.7040 ca         1 QQ9      -0.124000
      3 C14        -46.5730   -29.0160     6.3130 ca         1 QQ9       0.364500
      4 C12        -48.3050   -28.2620     5.1130 cc         1 QQ9      -0.175100
      5 C11        -47.3300   -28.5550     4.1970 cd         1 QQ9      -0.219200
      6 C10        -46.2040   -29.0420     4.9360 ca         1 QQ9      -0.117800
      7 C19        -46.0180   -31.1780     2.5230 c6         1 QQ9       0.123000
      8 C03        -45.6270   -32.5300     1.9150 c6         1 QQ9      -0.213700
      9 C04        -45.2710   -32.3690     0.4360 c6         1 QQ9      -0.044400
     10 C05        -44.1930   -31.3050     0.2430 c6         1 QQ9      -0.087400
     11 C06        -44.6210   -29.9860     0.8760 c6         1 QQ9       0.098000
     12 C09        -44.9150   -29.4930     4.6360 ca         1 QQ9      -0.017600
     13 N07        -44.9850   -30.1670     2.2830 n          1 QQ9      -0.378800
     14 N13        -47.8540   -28.5380     6.3850 na         1 QQ9      -0.346400
     15 N15        -45.8170   -29.3870     7.3400 nb         1 QQ9      -0.701000
     16 O18        -43.3860   -28.7250     3.0200 o          1 QQ9      -0.648100
     17 H161       -43.9560   -30.1210     7.8340 h4         1 QQ9       0.013100
     18 H171       -43.0970   -30.2120     5.5250 ha         1 QQ9       0.144000
     19 H121       -49.2990   -27.8750     4.9620 h4         1 QQ9       0.202000
     20 H111       -47.4090   -28.4400     3.1300 ha         1 QQ9       0.208000
     21 H192       -46.1700   -31.2890     3.5890 h1         1 QQ9       0.042700
     22 H191       -46.9500   -30.8290     2.0680 h1         1 QQ9       0.042700
     23 H031       -46.5180   -33.1630     1.9940 hc         1 QQ9       0.037700
     24 H041       -44.9430   -33.3240     0.0280 hc         1 QQ9       0.025700
     25 H042       -46.1700   -32.0680    -0.1150 hc         1 QQ9       0.025700
     26 H051       -43.2580   -31.6370     0.7020 hc         1 QQ9       0.047200
     27 H052       -43.9980   -31.1390    -0.8190 hc         1 QQ9       0.047200
     28 H062       -43.8350   -29.2400     0.8240 h1         1 QQ9       0.037200
     29 H061       -45.5040   -29.5970     0.3550 h1         1 QQ9       0.037200
     30 H131       -48.3820   -28.4160     7.2350 hn         1 QQ9       0.348000
     31 C08        -44.3630   -29.4530     3.2400 c          1 QQ9       0.623700
     32 C02        -44.5450   -33.2730     2.7530 c          1 QQ9       0.716000
     33 O01        -43.7390   -34.0130     2.1360 o          1 QQ9      -0.732000
     34 O20        -44.5960   -33.1230     4.0010 o          1 QQ9      -0.732000
@<TRIPOS>BOND
     1     1     2 ar  
     2     1    15 ar  
     3     1    17 1   
     4     2    12 ar  
     5     2    18 1   
     6     3     6 ar  
     7     3    14 1   
     8     3    15 ar  
     9     4     5 2   
    10     4    14 1   
    11     4    19 1   
    12     5     6 1   
    13     5    20 1   
    14     6    12 ar  
    15     7     8 1   
    16     7    13 1   
    17     7    21 1   
    18     7    22 1   
    19     8     9 1   
    20     8    23 1   
    21     8    32 1   
    22     9    10 1   
    23     9    24 1   
    24     9    25 1   
    25    10    11 1   
    26    10    26 1   
    27    10    27 1   
    28    11    13 1   
    29    11    28 1   
    30    11    29 1   
    31    12    31 1   
    32    13    31 1   
    33    14    30 1   
    34    16    31 2   
    35    32    33 1   
    36    32    34 1   
@<TRIPOS>SUBSTRUCTURE
     1 QQ9         1 TEMP              0 ****  ****    0 ROOT
