@<TRIPOS>MOLECULE
QQ9
   34    36     1     0     0
SMALL
No Charge or Current Charge


@<TRIPOS>ATOM
      1 C16        -44.4390   -29.7440     7.0600 ca         1 QQ9       0.353900
      2 C17        -43.9420   -29.8140     5.7410 ca         1 QQ9      -0.124000
      3 C14        -46.4990   -29.0300     6.3280 ca         1 QQ9       0.364500
      4 C12        -48.2680   -28.2800     5.0360 cc         1 QQ9      -0.175100
      5 C11        -47.1930   -28.5900     4.2240 cd         1 QQ9      -0.219200
      6 C10        -46.0840   -29.0760     5.0140 ca         1 QQ9      -0.117800
      7 C19        -46.1500   -31.0960     2.4830 c6         1 QQ9       0.123000
      8 C03        -45.7460   -32.4960     1.9510 c6         1 QQ9      -0.213700
      9 C04        -45.2630   -32.4300     0.4730 c6         1 QQ9      -0.044400
     10 C05        -44.2270   -31.3050     0.2410 c6         1 QQ9      -0.087400
     11 C06        -44.7520   -29.9560     0.7810 c6         1 QQ9       0.098000
     12 C09        -44.7870   -29.4950     4.6560 ca         1 QQ9      -0.017600
     13 N07        -45.1190   -30.0540     2.2160 n          1 QQ9      -0.378800
     14 N13        -47.8030   -28.5720     6.3370 na         1 QQ9      -0.346400
     15 N15        -45.7060   -29.3600     7.3630 nb         1 QQ9      -0.701000
     16 O18        -43.1650   -29.0900     2.9640 o          1 QQ9      -0.648100
     17 H161       -43.7990   -30.0010     7.9040 h4         1 QQ9       0.013100
     18 H171       -42.9160   -30.1270     5.5700 ha         1 QQ9       0.144000
     19 H121       -49.2600   -27.8910     4.8140 h4         1 QQ9       0.202000
     20 H111       -47.1910   -28.4610     3.1430 ha         1 QQ9       0.208000
     21 H192       -46.3690   -31.1830     3.5540 h1         1 QQ9       0.042700
     22 H191       -47.0830   -30.7860     1.9910 h1         1 QQ9       0.042700
     23 H031       -46.6610   -33.1050     1.9460 hc         1 QQ9       0.037700
     24 H041       -44.8460   -33.3990     0.1660 hc         1 QQ9       0.025700
     25 H042       -46.1300   -32.2500    -0.1780 hc         1 QQ9       0.025700
     26 H051       -43.2770   -31.5550     0.7310 hc         1 QQ9       0.047200
     27 H052       -44.0080   -31.2150    -0.8320 hc         1 QQ9       0.047200
     28 H062       -43.9980   -29.1730     0.6230 h1         1 QQ9       0.037200
     29 H061       -45.6440   -29.6590     0.2100 h1         1 QQ9       0.037200
     30 H131       -48.3370   -28.4570     7.1890 hn         1 QQ9       0.348000
     31 C08        -44.2710   -29.5520     3.2340 c          1 QQ9       0.623700
     32 C02        -44.7700   -33.2280     2.9030 c          1 QQ9       0.716000
     33 O01        -43.6710   -32.7420     3.1220 o          1 QQ9      -0.732000
     34 O20        -45.1560   -34.2680     3.4150 o          1 QQ9      -0.732000
@<TRIPOS>BOND
     1     1     2 ar  
     2     1    15 ar  
     3     1    17 1   
     4     2    12 ar  
     5     2    18 1   
     6     3     6 ar  
     7     3    14 1   
     8     3    15 ar  
     9     4     5 2   
    10     4    14 1   
    11     4    19 1   
    12     5     6 1   
    13     5    20 1   
    14     6    12 ar  
    15     7     8 1   
    16     7    13 1   
    17     7    21 1   
    18     7    22 1   
    19     8     9 1   
    20     8    23 1   
    21     8    32 1   
    22     9    10 1   
    23     9    24 1   
    24     9    25 1   
    25    10    11 1   
    26    10    26 1   
    27    10    27 1   
    28    11    13 1   
    29    11    28 1   
    30    11    29 1   
    31    12    31 1   
    32    13    31 1   
    33    14    30 1   
    34    16    31 2   
    35    32    33 1   
    36    32    34 1   
@<TRIPOS>SUBSTRUCTURE
     1 QQ9         1 TEMP              0 ****  ****    0 ROOT
