@<TRIPOS>MOLECULE
QQB
   33    34     1     0     0
SMALL
No Charge or Current Charge


@<TRIPOS>ATOM
      1 CB          -0.9840   -19.5220   -12.5260 c3         1 QQB      -0.022100
      2 OCA          1.0810   -17.9220    -8.8070 o          1 QQB      -0.596100
      3 CAO          2.0430   -17.6460    -9.5130 c          1 QQB       0.597900
      4 CM           1.3050   -19.1280   -11.4240 c3         1 QQB       0.055000
      5 CAA         -0.0280   -18.4780   -11.8880 c3         1 QQB       0.138500
      6 NA           0.2360   -17.3480   -12.8140 n8         1 QQB      -0.986200
      7 CG1         -2.4010   -18.9900   -12.7770 ca         1 QQB      -0.051300
      8 CD2         -3.3640   -18.8480   -11.7390 ca         1 QQB      -0.024000
      9 CG2         -3.0740   -19.1850   -10.3940 ca         1 QQB      -0.102000
     10 CD3         -4.0470   -19.0320    -9.3910 ca         1 QQB      -0.107000
     11 CE3         -5.3210   -18.5430    -9.7120 ca         1 QQB      -0.109000
     12 CZ2         -5.6260   -18.2050   -11.0390 ca         1 QQB      -0.100000
     13 CE2         -4.6570   -18.3560   -12.0510 ca         1 QQB      -0.037000
     14 CZ1         -4.9870   -18.0130   -13.3740 ca         1 QQB      -0.100000
     15 CE1         -4.0380   -18.1570   -14.3950 ca         1 QQB      -0.106000
     16 CD1         -2.7570   -18.6430   -14.0980 ca         1 QQB      -0.094000
     17 H1          -1.0310   -20.4110   -11.8860 hc         1 QQB       0.045700
     18 H2          -0.5400   -19.8780   -13.4640 hc         1 QQB       0.045700
     19 H3           2.8550   -16.9550    -9.2190 h5         1 QQB       0.007200
     20 H4           3.0670   -17.9000   -11.2640 hn         1 QQB       0.311500
     21 H5           1.0840   -19.9410   -10.7180 h1         1 QQB       0.055700
     22 H6           1.8170   -19.5720   -12.2890 h1         1 QQB       0.055700
     23 H7          -0.5220   -18.0700   -10.9930 h1         1 QQB       0.086700
     24 H8           0.9480   -16.7450   -12.3890 hn         1 QQB       0.390500
     25 H9           0.6980   -17.7060   -13.6560 hn         1 QQB       0.390500
     26 H11         -2.1010   -19.5670   -10.1030 ha         1 QQB       0.114000
     27 H12         -3.8100   -19.2940    -8.3620 ha         1 QQB       0.113000
     28 H13         -6.0720   -18.4250    -8.9340 ha         1 QQB       0.112000
     29 H14         -6.6170   -17.8280   -11.2810 ha         1 QQB       0.110000
     30 H15         -5.9790   -17.6360   -13.6130 ha         1 QQB       0.111000
     31 H16         -4.2960   -17.8920   -15.4180 ha         1 QQB       0.111000
     32 H17         -2.0310   -18.7450   -14.9010 ha         1 QQB       0.107000
     33 NM           2.2260   -18.1810   -10.7710 ns         1 QQB      -0.524900
@<TRIPOS>BOND
     1     1     5 1   
     2     1     7 1   
     3     1    17 1   
     4     1    18 1   
     5     2     3 2   
     6     3    19 1   
     7     3    33 1   
     8     4     5 1   
     9     4    21 1   
    10     4    22 1   
    11     4    33 1   
    12     5     6 1   
    13     5    23 1   
    14     6    24 1   
    15     6    25 1   
    16     7     8 ar  
    17     7    16 ar  
    18     8     9 ar  
    19     8    13 ar  
    20     9    10 ar  
    21     9    26 1   
    22    10    11 ar  
    23    10    27 1   
    24    11    12 ar  
    25    11    28 1   
    26    12    13 ar  
    27    12    29 1   
    28    13    14 ar  
    29    14    15 ar  
    30    14    30 1   
    31    15    16 ar  
    32    15    31 1   
    33    16    32 1   
    34    20    33 1   
@<TRIPOS>SUBSTRUCTURE
     1 QQB         1 TEMP              0 ****  ****    0 ROOT
