@<TRIPOS>MOLECULE
QQB
   33    34     1     0     0
SMALL
abcg2


@<TRIPOS>ATOM
      1 CB          -0.9810   -19.4960   -12.4790 c3         1 QQB      -0.022100
      2 OCA          1.3270   -18.1540    -8.7160 o          1 QQB      -0.596100
      3 CAO          2.1390   -17.7820    -9.5450 c          1 QQB       0.597900
      4 CM           1.2350   -19.1070   -11.4040 c3         1 QQB       0.055000
      5 CAA         -0.0690   -18.4330   -11.8540 c3         1 QQB       0.138500
      6 NA           0.1170   -17.3290   -12.7750 n8         1 QQB      -0.986200
      7 CG1         -2.3680   -19.0060   -12.7800 ca         1 QQB      -0.051300
      8 CD2         -3.3400   -18.8500   -11.7460 ca         1 QQB      -0.024000
      9 CG2         -3.0750   -19.1740   -10.3920 ca         1 QQB      -0.102000
     10 CD3         -4.0280   -19.0100    -9.4230 ca         1 QQB      -0.107000
     11 CE3         -5.3050   -18.5140    -9.7520 ca         1 QQB      -0.109000
     12 CZ2         -5.5970   -18.1970   -11.0500 ca         1 QQB      -0.100000
     13 CE2         -4.6330   -18.3550   -12.0730 ca         1 QQB      -0.037000
     14 CZ1         -4.9380   -18.0310   -13.4150 ca         1 QQB      -0.100000
     15 CE1         -3.9980   -18.1970   -14.3930 ca         1 QQB      -0.106000
     16 CD1         -2.7160   -18.6820   -14.0670 ca         1 QQB      -0.094000
     17 H1          -1.0140   -20.3690   -11.8210 hc         1 QQB       0.045700
     18 H2          -0.5160   -19.8400   -13.4080 hc         1 QQB       0.045700
     19 H3           2.9410   -17.0650    -9.3090 h5         1 QQB       0.007200
     20 H4           2.8920   -17.7820   -11.4130 hn         1 QQB       0.311500
     21 H5           1.0200   -19.8990   -10.6840 h1         1 QQB       0.055700
     22 H6           1.7190   -19.5770   -12.2630 h1         1 QQB       0.055700
     23 H7          -0.5580   -18.0290   -10.9620 h1         1 QQB       0.086700
     24 H8           0.6790   -16.6090   -12.3400 hn         1 QQB       0.390500
     25 H9           0.6370   -17.6420   -13.5890 hn         1 QQB       0.390500
     26 H11         -2.1050   -19.5610   -10.1090 ha         1 QQB       0.114000
     27 H12         -3.8010   -19.2650    -8.3960 ha         1 QQB       0.113000
     28 H13         -6.0510   -18.3880    -8.9780 ha         1 QQB       0.112000
     29 H14         -6.5780   -17.8180   -11.3140 ha         1 QQB       0.110000
     30 H15         -5.9250   -17.6560   -13.6550 ha         1 QQB       0.111000
     31 H16         -4.2310   -17.9540   -15.4210 ha         1 QQB       0.111000
     32 H17         -1.9850   -18.8050   -14.8570 ha         1 QQB       0.107000
     33 NM           2.1820   -18.1830   -10.8210 ns         1 QQB      -0.524900
@<TRIPOS>BOND
     1     1     5 1   
     2     1     7 1   
     3     1    17 1   
     4     1    18 1   
     5     2     3 2   
     6     3    19 1   
     7     3    33 1   
     8     4     5 1   
     9     4    21 1   
    10     4    22 1   
    11     4    33 1   
    12     5     6 1   
    13     5    23 1   
    14     6    24 1   
    15     6    25 1   
    16     7     8 ar  
    17     7    16 ar  
    18     8     9 ar  
    19     8    13 ar  
    20     9    10 ar  
    21     9    26 1   
    22    10    11 ar  
    23    10    27 1   
    24    11    12 ar  
    25    11    28 1   
    26    12    13 ar  
    27    12    29 1   
    28    13    14 ar  
    29    14    15 ar  
    30    14    30 1   
    31    15    16 ar  
    32    15    31 1   
    33    16    32 1   
    34    20    33 1   
@<TRIPOS>SUBSTRUCTURE
     1 QQB         1 TEMP              0 ****  ****    0 ROOT
