@<TRIPOS>MOLECULE
QQC
   58    62     1     0     0
SMALL
No Charge or Current Charge


@<TRIPOS>ATOM
      1 C15         12.8340   -15.1310    48.9060 cc         1 QQC       0.046700
      2 C17         12.3560   -15.7030    50.2250 c3         1 QQC       0.215100
      3 C20         15.0740   -14.5670    52.7500 c6         1 QQC       0.153100
      4 C22         14.0610   -16.5890    53.5810 c6         1 QQC       0.153100
      5 C24         14.7310   -18.9610    46.3940 c3         1 QQC      -0.013900
      6 C26         14.0740   -15.7170    43.5340 ca         1 QQC      -0.097300
      7 C28         13.5870   -14.3070    41.5940 ca         1 QQC      -0.148000
      8 C02         13.0030   -10.7850    43.6480 cc         1 QQC      -0.110300
      9 C03         13.0200   -11.8640    44.4820 cd         1 QQC      -0.229000
     10 C04         13.0390   -11.3670    45.7940 cd         1 QQC       0.506900
     11 C08         13.1830   -13.3850    47.2560 cd         1 QQC       0.593900
     12 C11         14.4470   -16.4260    45.9600 cc         1 QQC      -0.134300
     13 C12         14.3030   -17.5580    46.7370 cd         1 QQC       0.050400
     14 C14         13.4470   -15.9710    47.9270 cc         1 QQC      -0.131000
     15 C16         12.7070   -13.8080    48.5460 cd         1 QQC      -0.208000
     16 C19         13.9800   -14.4390    51.6480 c6         1 QQC       0.127800
     17 C23         12.9420   -16.5040    52.5000 c6         1 QQC       0.127800
     18 C25         15.0550   -16.2410    44.5880 c3         1 QQC       0.057100
     19 C27         14.4920   -14.7950    42.5480 ca         1 QQC       0.168000
     20 C29         12.2530   -14.7350    41.6130 ca         1 QQC       0.139000
     21 C30         11.8250   -15.6580    42.5790 ca         1 QQC      -0.113000
     22 C31         12.7310   -16.1520    43.5330 ca         1 QQC      -0.066000
     23 F33         15.7740   -14.3660    42.5070 f          1 QQC      -0.181000
     24 N05         13.0120   -10.0630    45.8690 nc         1 QQC      -0.579800
     25 N06         13.0020    -9.6960    44.5250 na         1 QQC      -0.016200
     26 N07         13.0210   -12.0750    46.9420 nu         1 QQC      -0.896800
     27 N09         13.7850   -14.1360    46.3430 nc         1 QQC      -0.547800
     28 N10         13.8910   -15.4480    46.7420 na         1 QQC       0.252900
     29 N13         13.6900   -17.2700    47.9500 nd         1 QQC      -0.254600
     30 N18         13.4040   -15.7720    51.2810 n3         1 QQC      -0.704600
     31 O21         14.5490   -15.2640    53.9050 os         1 QQC      -0.460000
     32 Cl32        11.1170   -14.1160    40.4230 cl         1 QQC      -0.206000
     33 H171        11.5100   -15.0990    50.5790 h1         1 QQC       0.051700
     34 H172        11.9590   -16.7090    50.0340 h1         1 QQC       0.051700
     35 H202        15.9400   -15.1190    52.3550 h1         1 QQC       0.055200
     36 H201        15.4160   -13.5680    53.0550 h1         1 QQC       0.055200
     37 H222        13.6660   -17.0610    54.4920 h1         1 QQC       0.055200
     38 H221        14.8940   -17.2040    53.2110 h1         1 QQC       0.055200
     39 H241        15.8180   -19.0150    46.2600 hc         1 QQC       0.047033
     40 H243        14.4550   -19.6710    47.1820 hc         1 QQC       0.047033
     41 H242        14.2600   -19.2950    45.4620 hc         1 QQC       0.047033
     42 H281        13.9210   -13.5980    40.8420 ha         1 QQC       0.144000
     43 H013        13.9440   -11.0120    41.7260 hc         1 QQC       0.054367
     44 H012        12.2100   -11.3830    41.7390 hc         1 QQC       0.054367
     45 H011        12.7550    -9.6980    41.7970 hc         1 QQC       0.054367
     46 H031        13.0060   -12.9040    44.1850 ha         1 QQC       0.166000
     47 H161        12.2400   -13.1010    49.2210 ha         1 QQC       0.130000
     48 H192        14.4310   -13.9570    50.7690 h1         1 QQC       0.042200
     49 H191        13.1880   -13.7680    52.0140 h1         1 QQC       0.042200
     50 H232        12.0670   -16.0010    52.9390 h1         1 QQC       0.042200
     51 H231        12.6280   -17.5240    52.2370 h1         1 QQC       0.042200
     52 H251        15.4760   -17.1910    44.2400 hc         1 QQC       0.074700
     53 H252        15.9110   -15.5630    44.6890 hc         1 QQC       0.074700
     54 H301        10.7900   -15.9910    42.5880 ha         1 QQC       0.135000
     55 H311        12.3840   -16.8690    44.2750 ha         1 QQC       0.131000
     56 H061        12.9860    -8.7150    44.2490 hn         1 QQC       0.372000
     57 H071        12.8260   -11.4870    47.7420 hn         1 QQC       0.514000
     58 C01         12.9770   -10.7140    42.1460 c3         1 QQC      -0.034800
@<TRIPOS>BOND
     1     1     2 1   
     2     1    14 1   
     3     1    15 2   
     4     2    30 1   
     5     2    33 1   
     6     2    34 1   
     7     3    16 1   
     8     3    31 1   
     9     3    35 1   
    10     3    36 1   
    11     4    17 1   
    12     4    31 1   
    13     4    37 1   
    14     4    38 1   
    15     5    13 1   
    16     5    39 1   
    17     5    40 1   
    18     5    41 1   
    19     6    18 1   
    20     6    19 ar  
    21     6    22 ar  
    22     7    19 ar  
    23     7    20 ar  
    24     7    42 1   
    25     8     9 2   
    26     8    25 1   
    27     8    58 1   
    28     9    10 1   
    29     9    46 1   
    30    10    24 2   
    31    10    26 1   
    32    11    15 1   
    33    11    26 1   
    34    11    27 2   
    35    12    13 2   
    36    12    18 1   
    37    12    28 1   
    38    13    29 1   
    39    14    28 1   
    40    14    29 2   
    41    15    47 1   
    42    16    30 1   
    43    16    48 1   
    44    16    49 1   
    45    17    30 1   
    46    17    50 1   
    47    17    51 1   
    48    18    52 1   
    49    18    53 1   
    50    19    23 1   
    51    20    21 ar  
    52    20    32 1   
    53    21    22 ar  
    54    21    54 1   
    55    22    55 1   
    56    24    25 1   
    57    25    56 1   
    58    26    57 1   
    59    27    28 1   
    60    43    58 1   
    61    44    58 1   
    62    45    58 1   
@<TRIPOS>SUBSTRUCTURE
     1 QQC         1 TEMP              0 ****  ****    0 ROOT
