@<TRIPOS>MOLECULE
QQC
   58    62     1     0     0
SMALL
abcg2


@<TRIPOS>ATOM
      1 C15         12.7370   -15.0100    48.9590 cc         1 QQC       0.046700
      2 C17         12.2820   -15.5360    50.2910 c3         1 QQC       0.215100
      3 C20         15.2050   -14.8640    52.5590 c6         1 QQC       0.153100
      4 C22         14.1880   -16.8680    53.2340 c6         1 QQC       0.153100
      5 C24         14.8650   -18.7860    46.5830 c3         1 QQC      -0.013900
      6 C26         13.9840   -15.6310    43.6980 ca         1 QQC      -0.097300
      7 C28         13.5480   -14.6120    41.5180 ca         1 QQC      -0.148000
      8 C02         13.1050   -10.8660    43.5500 cc         1 QQC      -0.110300
      9 C03         13.1810   -11.9270    44.4370 cd         1 QQC      -0.229000
     10 C04         12.8390   -11.3720    45.6910 cd         1 QQC       0.506900
     11 C08         12.9720   -13.2690    47.2830 cd         1 QQC       0.593900
     12 C11         14.4190   -16.2860    46.1010 cc         1 QQC      -0.134300
     13 C12         14.3530   -17.4210    46.8960 cd         1 QQC       0.050400
     14 C14         13.4080   -15.8570    48.0440 cc         1 QQC      -0.131000
     15 C16         12.5240   -13.7220    48.5660 cd         1 QQC      -0.208000
     16 C19         14.0300   -14.5420    51.6540 c6         1 QQC       0.127800
     17 C23         12.9910   -16.5860    52.3440 c6         1 QQC       0.127800
     18 C25         14.9940   -16.0170    44.7590 c3         1 QQC       0.057100
     19 C27         14.4040   -15.0250    42.5210 ca         1 QQC       0.168000
     20 C29         12.1900   -14.8220    41.7080 ca         1 QQC       0.139000
     21 C30         11.7100   -15.4350    42.8560 ca         1 QQC      -0.113000
     22 C31         12.6130   -15.8340    43.8340 ca         1 QQC      -0.066000
     23 F33         15.7310   -14.8070    42.3430 f          1 QQC      -0.181000
     24 N05         12.5770   -10.0670    45.5970 nc         1 QQC      -0.579800
     25 N06         12.7460    -9.7900    44.2800 na         1 QQC      -0.016200
     26 N07         12.6990   -11.9720    46.9350 nu         1 QQC      -0.896800
     27 N09         13.6230   -14.0300    46.4320 nc         1 QQC      -0.547800
     28 N10         13.8110   -15.3030    46.8420 na         1 QQC       0.252900
     29 N13         13.7350   -17.1480    48.0850 nd         1 QQC      -0.254600
     30 N18         13.4010   -15.7800    51.1970 n3         1 QQC      -0.704600
     31 O21         14.8030   -15.6580    53.6730 os         1 QQC      -0.460000
     32 CL32        11.0710   -14.2840    40.4770 cl         1 QQC      -0.206000
     33 H171        11.5550   -14.8330    50.7250 h1         1 QQC       0.051700
     34 H172        11.7700   -16.4870    50.1350 h1         1 QQC       0.051700
     35 H202        15.9760   -15.3980    51.9880 h1         1 QQC       0.055200
     36 H201        15.6360   -13.9490    52.9650 h1         1 QQC       0.055200
     37 H222        13.8800   -17.4070    54.1300 h1         1 QQC       0.055200
     38 H221        14.9210   -17.4750    52.6870 h1         1 QQC       0.055200
     39 H241        15.6650   -19.0700    47.2710 hc         1 QQC       0.047033
     40 H243        14.0690   -19.5270    46.6820 hc         1 QQC       0.047033
     41 H242        15.2560   -18.8410    45.5670 hc         1 QQC       0.047033
     42 H281        13.9360   -14.1350    40.6300 ha         1 QQC       0.144000
     43 H013        14.4140   -10.5500    41.8850 hc         1 QQC       0.054367
     44 H012        13.1530   -11.7530    41.6170 hc         1 QQC       0.054367
     45 H011        12.7480   -10.0300    41.6150 hc         1 QQC       0.054367
     46 H031        13.4340   -12.9440    44.2140 ha         1 QQC       0.166000
     47 H161        12.0040   -13.0280    49.2130 ha         1 QQC       0.130000
     48 H192        14.3860   -13.9730    50.7940 h1         1 QQC       0.042200
     49 H191        13.3070   -13.9110    52.2000 h1         1 QQC       0.042200
     50 H232        12.2120   -16.0740    52.9340 h1         1 QQC       0.042200
     51 H231        12.5750   -17.5300    51.9850 h1         1 QQC       0.042200
     52 H251        15.5440   -16.9010    44.4310 hc         1 QQC       0.074700
     53 H252        15.7340   -15.2140    44.8340 hc         1 QQC       0.074700
     54 H301        10.6490   -15.5910    42.9900 ha         1 QQC       0.135000
     55 H311        12.2390   -16.2990    44.7370 ha         1 QQC       0.131000
     56 H061        12.6000    -8.8500    43.9490 hn         1 QQC       0.372000
     57 H071        12.2780   -11.3940    47.6460 hn         1 QQC       0.514000
     58 C01         13.3680   -10.7940    42.0860 c3         1 QQC      -0.034800
@<TRIPOS>BOND
     1     1     2 1   
     2     1    14 1   
     3     1    15 2   
     4     2    30 1   
     5     2    33 1   
     6     2    34 1   
     7     3    16 1   
     8     3    31 1   
     9     3    35 1   
    10     3    36 1   
    11     4    17 1   
    12     4    31 1   
    13     4    37 1   
    14     4    38 1   
    15     5    13 1   
    16     5    39 1   
    17     5    40 1   
    18     5    41 1   
    19     6    18 1   
    20     6    19 ar  
    21     6    22 ar  
    22     7    19 ar  
    23     7    20 ar  
    24     7    42 1   
    25     8     9 2   
    26     8    25 1   
    27     8    58 1   
    28     9    10 1   
    29     9    46 1   
    30    10    24 2   
    31    10    26 1   
    32    11    15 1   
    33    11    26 1   
    34    11    27 2   
    35    12    13 2   
    36    12    18 1   
    37    12    28 1   
    38    13    29 1   
    39    14    28 1   
    40    14    29 2   
    41    15    47 1   
    42    16    30 1   
    43    16    48 1   
    44    16    49 1   
    45    17    30 1   
    46    17    50 1   
    47    17    51 1   
    48    18    52 1   
    49    18    53 1   
    50    19    23 1   
    51    20    21 ar  
    52    20    32 1   
    53    21    22 ar  
    54    21    54 1   
    55    22    55 1   
    56    24    25 1   
    57    25    56 1   
    58    26    57 1   
    59    27    28 1   
    60    43    58 1   
    61    44    58 1   
    62    45    58 1   
@<TRIPOS>SUBSTRUCTURE
     1 QQC         1 TEMP              0 ****  ****    0 ROOT
