@<TRIPOS>MOLECULE
QQD
   51    54     1     0     0
SMALL
bcc


@<TRIPOS>ATOM
      1 C13         52.6000     2.9000    30.6690 ca         1 QQD       0.405200
      2 C15         52.6620     0.6730    31.1140 ca         1 QQD       0.402200
      3 C17         50.8630     1.5330    29.8040 ca         1 QQD      -0.077000
      4 C20         49.5370     6.1220    30.0110 c3         1 QQD      -0.078100
      5 C21         48.4220     3.9960    29.3890 ca         1 QQD      -0.152300
      6 C22         47.0920     3.8680    29.7220 ca         1 QQD      -0.073000
      7 C24         46.6640     2.9360    27.5400 ca         1 QQD      -0.090000
      8 C26         48.8800     3.5940    28.1310 ca         1 QQD       0.158600
      9 C28         50.9320     4.0040    23.2320 ca         1 QQD      -0.090000
     10 C05         50.5380     5.3400    23.1930 ca         1 QQD      -0.155600
     11 C06         50.2610     5.9950    24.3910 ca         1 QQD      -0.090000
     12 C07         50.3990     5.3350    25.6020 ca         1 QQD      -0.126500
     13 C08         50.8160     4.0100    25.6440 ca         1 QQD      -0.073300
     14 C09         51.0240     3.2840    26.9520 c3         1 QQD       0.271100
     15 C11         50.7970     4.0430    29.3520 c5         1 QQD       0.284800
     16 C12         51.4190     2.8010    29.9420 ca         1 QQD      -0.229600
     17 C16         51.4920     0.4530    30.4010 ca         1 QQD      -0.249300
     18 C18         49.5750     4.5960    30.1600 c5         1 QQD       0.008300
     19 C19         49.5880     4.2270    31.6370 c3         1 QQD      -0.078100
     20 C23         46.2010     3.3280    28.7880 ca         1 QQD      -0.175000
     21 C25         48.0080     3.0620    27.1890 ca         1 QQD      -0.184000
     22 C27         51.0730     3.3520    24.4450 ca         1 QQD      -0.126500
     23 N03         50.6370     7.3080    21.8490 ns         1 QQD      -0.459400
     24 N10         50.2350     3.8090    28.0290 nh         1 QQD      -0.680000
     25 N14         53.2120     1.8730    31.2470 nb         1 QQD      -0.664000
     26 O01         50.0880     5.3570    20.8570 o          1 QQD      -0.573100
     27 O04         50.3760     8.0470    20.7380 oh         1 QQD      -0.376100
     28 H1          53.0750     3.8700    30.7850 h4         1 QQD       0.016100
     29 H2          53.1760    -0.1540    31.5910 h4         1 QQD       0.020100
     30 H3          49.9510     1.3820    29.2410 ha         1 QQD       0.148000
     31 H4          48.6180     6.5260    30.4400 hc         1 QQD       0.040033
     32 H5          50.3820     6.5820    30.5280 hc         1 QQD       0.040033
     33 H6          49.5770     6.4260    28.9630 hc         1 QQD       0.040033
     34 H7          46.7350     4.1810    30.6960 ha         1 QQD       0.131000
     35 H8          45.9720     2.5180    26.8200 ha         1 QQD       0.129000
     36 H9          51.1320     3.4730    22.3110 ha         1 QQD       0.142500
     37 H10         49.9080     7.0190    24.3980 ha         1 QQD       0.142500
     38 H11         50.1710     5.8560    26.5230 ha         1 QQD       0.142000
     39 H12         50.8500     2.2110    26.7990 h1         1 QQD       0.052700
     40 H13         52.0770     3.3770    27.2310 h1         1 QQD       0.052700
     41 H14         51.5720     4.8140    29.2950 h1         1 QQD       0.068700
     42 H15         51.0870    -0.5460    30.3140 ha         1 QQD       0.143000
     43 H16         48.7370     4.6840    32.1450 hc         1 QQD       0.040033
     44 H17         49.5300     3.1510    31.7930 hc         1 QQD       0.040033
     45 H18         50.4950     4.5900    32.1260 hc         1 QQD       0.040033
     46 H19         45.1550     3.2160    29.0380 ha         1 QQD       0.132000
     47 H20         48.3480     2.7440    26.2120 ha         1 QQD       0.141000
     48 H21         51.3820     2.3130    24.4580 ha         1 QQD       0.142000
     49 H22         50.9020     7.8380    22.6660 hn         1 QQD       0.341500
     50 H23         51.1980     8.0790    20.2300 ho         1 QQD       0.401000
     51 C02         50.3840     5.9880    21.8580 c          1 QQD       0.687700
@<TRIPOS>BOND
     1     1    16 ar  
     2     1    25 ar  
     3     1    28 1   
     4     2    17 ar  
     5     2    25 ar  
     6     2    29 1   
     7     3    16 ar  
     8     3    17 ar  
     9     3    30 1   
    10     4    18 1   
    11     4    31 1   
    12     4    32 1   
    13     4    33 1   
    14     5     6 ar  
    15     5     8 ar  
    16     5    18 1   
    17     6    20 ar  
    18     6    34 1   
    19     7    20 ar  
    20     7    21 ar  
    21     7    35 1   
    22     8    21 ar  
    23     8    24 1   
    24     9    10 ar  
    25     9    22 ar  
    26     9    36 1   
    27    10    11 ar  
    28    10    51 1   
    29    11    12 ar  
    30    11    37 1   
    31    12    13 ar  
    32    12    38 1   
    33    13    14 1   
    34    13    22 ar  
    35    14    24 1   
    36    14    39 1   
    37    14    40 1   
    38    15    16 1   
    39    15    18 1   
    40    15    24 1   
    41    15    41 1   
    42    17    42 1   
    43    18    19 1   
    44    19    43 1   
    45    19    44 1   
    46    19    45 1   
    47    20    46 1   
    48    21    47 1   
    49    22    48 1   
    50    23    27 1   
    51    23    49 1   
    52    23    51 1   
    53    26    51 2   
    54    27    50 1   
@<TRIPOS>SUBSTRUCTURE
     1 QQD         1 TEMP              0 ****  ****    0 ROOT
