@<TRIPOS>MOLECULE
QQD
   51    54     1     0     0
SMALL
No Charge or Current Charge


@<TRIPOS>ATOM
      1 C13         52.6760     3.3640    30.8080 ca         1 QQD       0.339900
      2 C15         53.1830     1.2700    31.6580 ca         1 QQD       0.336900
      3 C17         51.3300     1.4810    30.1120 ca         1 QQD      -0.059000
      4 C20         49.6650     5.9290    30.2440 c3         1 QQD      -0.078100
      5 C21         48.3810     4.1000    29.0420 ca         1 QQD      -0.152300
      6 C22         47.0260     4.4450    29.1990 ca         1 QQD      -0.055000
      7 C24         46.5320     3.3400    27.0720 ca         1 QQD      -0.072000
      8 C26         48.7920     3.3990    27.9270 ca         1 QQD       0.297000
      9 C28         50.3690     3.8180    23.1810 ca         1 QQD      -0.072000
     10 C05         50.5000     5.2240    23.2470 ca         1 QQD      -0.155600
     11 C06         50.7920     5.8130    24.5020 ca         1 QQD      -0.072000
     12 C07         50.9400     5.0140    25.6490 ca         1 QQD      -0.108500
     13 C08         50.8000     3.6160    25.5760 ca         1 QQD      -0.073300
     14 C09         50.9580     2.7470    26.8250 c3         1 QQD       0.271100
     15 C11         50.7870     3.8250    29.1800 c5         1 QQD       0.284800
     16 C12         51.6030     2.8640    30.0460 ca         1 QQD      -0.164300
     17 C16         52.1360     0.6770    30.9340 ca         1 QQD      -0.166000
     18 C18         49.5250     4.4030    30.0090 c5         1 QQD       0.008300
     19 C19         49.2420     3.7340    31.3860 c3         1 QQD      -0.078100
     20 C23         46.1030     4.0620    28.2050 ca         1 QQD      -0.157000
     21 C25         47.8910     3.0000    26.9290 ca         1 QQD      -0.166000
     22 C27         50.5170     3.0250    24.3310 ca         1 QQD      -0.108500
     23 N03         50.4060     7.4320    22.1240 ns         1 QQD      -0.392400
     24 N10         50.1600     3.1850    27.9910 nh         1 QQD      -0.818400
     25 N14         53.4560     2.5930    31.6010 nb         1 QQD      -0.664000
     26 O01         50.1520     5.5280    20.8880 o          1 QQD      -0.573100
     27 O04         50.0160     8.3160    21.0430 oh         1 QQD      -0.415100
     28 H1          52.9220     4.4260    30.7850 h4         1 QQD       0.016100
     29 H2          53.8220     0.6680    32.3030 h4         1 QQD       0.020100
     30 H3          50.5110     1.0420    29.5460 ha         1 QQD       0.130000
     31 H4          48.7770     6.3470    30.7330 hc         1 QQD       0.040033
     32 H5          50.5320     6.1540    30.8760 hc         1 QQD       0.040033
     33 H6          49.7990     6.4620    29.2950 hc         1 QQD       0.040033
     34 H7          46.6910     4.9970    30.0750 ha         1 QQD       0.113000
     35 H8          45.8140     3.0440    26.3100 ha         1 QQD       0.111000
     36 H9          50.1470     3.3310    22.2330 ha         1 QQD       0.124500
     37 H10         50.9130     6.8870    24.6090 ha         1 QQD       0.124500
     38 H11         51.1610     5.4880    26.6030 ha         1 QQD       0.124000
     39 H12         50.6920     1.7090    26.5820 h1         1 QQD       0.052700
     40 H13         52.0230     2.7370    27.0960 h1         1 QQD       0.052700
     41 H14         51.4310     4.6550    28.8530 h1         1 QQD       0.068700
     42 H15         51.9570    -0.3920    31.0150 ha         1 QQD       0.125000
     43 H16         48.3420     4.1520    31.8540 hc         1 QQD       0.040033
     44 H17         49.0750     2.6560    31.2800 hc         1 QQD       0.040033
     45 H18         50.0700     3.8830    32.0890 hc         1 QQD       0.040033
     46 H19         45.0520     4.3230    28.3150 ha         1 QQD       0.114000
     47 H20         48.2290     2.4410    26.0630 ha         1 QQD       0.123000
     48 H21         50.4090     1.9450    24.2520 ha         1 QQD       0.124000
     49 H22         50.3930     7.8370    23.0570 hn         1 QQD       0.341500
     50 H23         50.7740     8.9420    20.9700 ho         1 QQD       0.440000
     51 C02         50.3310     6.0490    21.9830 c          1 QQD       0.620700
@<TRIPOS>BOND
     1     1    16 ar  
     2     1    25 ar  
     3     1    28 1   
     4     2    17 ar  
     5     2    25 ar  
     6     2    29 1   
     7     3    16 ar  
     8     3    17 ar  
     9     3    30 1   
    10     4    18 1   
    11     4    31 1   
    12     4    32 1   
    13     4    33 1   
    14     5     6 ar  
    15     5     8 ar  
    16     5    18 1   
    17     6    20 ar  
    18     6    34 1   
    19     7    20 ar  
    20     7    21 ar  
    21     7    35 1   
    22     8    21 ar  
    23     8    24 1   
    24     9    10 ar  
    25     9    22 ar  
    26     9    36 1   
    27    10    11 ar  
    28    10    51 1   
    29    11    12 ar  
    30    11    37 1   
    31    12    13 ar  
    32    12    38 1   
    33    13    14 1   
    34    13    22 ar  
    35    14    24 1   
    36    14    39 1   
    37    14    40 1   
    38    15    16 1   
    39    15    18 1   
    40    15    24 1   
    41    15    41 1   
    42    17    42 1   
    43    18    19 1   
    44    19    43 1   
    45    19    44 1   
    46    19    45 1   
    47    20    46 1   
    48    21    47 1   
    49    22    48 1   
    50    23    27 1   
    51    23    49 1   
    52    23    51 1   
    53    26    51 2   
    54    27    50 1   
@<TRIPOS>SUBSTRUCTURE
     1 QQD         1 TEMP              0 ****  ****    0 ROOT
