@<TRIPOS>MOLECULE
QQE
   61    64     1     0     0
SMALL
No Charge or Current Charge


@<TRIPOS>ATOM
      1 C4          12.5700   -13.4670    14.0560 ca         1 QQE       0.132400
      2 C5          11.6920   -12.6110    14.6530 ca         1 QQE      -0.010900
      3 C7          13.6660   -11.9740    15.0190 cc         1 QQE       0.773500
      4 C10         16.0650   -11.2540    15.0820 c3         1 QQE       0.296800
      5 C13         16.6440   -10.5060    11.3570 ca         1 QQE      -0.099000
      6 C15         16.2500    -8.3980    12.4980 ca         1 QQE       0.126000
      7 C20          8.0380   -12.0200    15.1850 c3         1 QQE       0.147900
      8 C24          8.4650   -14.7310    11.1490 c6         1 QQE       0.072000
      9 C28          8.2890   -17.2170    11.3470 c6         1 QQE       0.071700
     10 C16         16.1030    -9.0810    13.7170 ca         1 QQE      -0.094000
     11 C14         16.5220    -9.1070    11.3180 ca         1 QQE      -0.097000
     12 C12         16.4970   -11.1920    12.5750 ca         1 QQE      -0.089000
     13 C11         16.2310   -10.4870    13.7680 ca         1 QQE      -0.099300
     14 C33         16.9660   -10.7180    16.2110 c3         1 QQE      -0.102100
     15 N9          14.6680   -11.2040    15.5060 nu         1 QQE      -0.885400
     16 O6          12.3610   -11.6200    15.2990 os         1 QQE      -0.301700
     17 N8          13.8690   -13.0690    14.2860 nd         1 QQE      -0.648100
     18 C3          12.1230   -14.5760    13.3280 ca         1 QQE      -0.066000
     19 C18         10.3030   -12.7930    14.5840 ca         1 QQE       0.168100
     20 O19          9.4700   -11.8970    15.2260 os         1 QQE      -0.332100
     21 C1           9.8240   -13.9080    13.8530 ca         1 QQE      -0.186000
     22 C2          10.7290   -14.7970    13.2010 ca         1 QQE      -0.105600
     23 N23          8.9610   -15.9690    11.8340 n          1 QQE      -0.413800
     24 C25          8.4340   -14.8880     9.6020 c6         1 QQE       0.146300
     25 C32          7.7300   -13.7030     8.9020 c3         1 QQE      -0.088100
     26 O26          7.7190   -16.0850     9.2340 os         1 QQE      -0.455000
     27 C27          8.3030   -17.2830     9.7920 c6         1 QQE       0.144600
     28 C29          6.8450   -17.3600    11.9130 c3         1 QQE      -0.088400
     29 C30          6.7730   -17.3590    13.4530 c3         1 QQE       0.163600
     30 O31          5.4180   -17.5580    13.8730 oh         1 QQE      -0.672000
     31 H1          16.3600   -12.3000    14.9110 h1         1 QQE       0.086700
     32 H2          16.8510   -11.0600    10.4430 ha         1 QQE       0.121000
     33 H3           7.5700   -11.2050    15.7510 h1         1 QQE       0.045700
     34 H4           7.6710   -11.9710    14.1510 h1         1 QQE       0.045700
     35 H5           7.7150   -12.9710    15.6290 h1         1 QQE       0.045700
     36 H7           7.4560   -14.4960    11.5170 h1         1 QQE       0.061200
     37 H8           8.8450   -18.0950    11.7080 h1         1 QQE       0.091700
     38 H9          15.8840    -8.5130    14.6170 ha         1 QQE       0.125000
     39 H10         16.6350    -8.5740    10.3770 ha         1 QQE       0.131000
     40 H11         16.5880   -12.2770    12.5900 ha         1 QQE       0.121000
     41 H12         16.8700   -11.3450    17.1050 hc         1 QQE       0.050700
     42 H13         18.0160   -10.7340    15.8970 hc         1 QQE       0.050700
     43 H14         16.7030    -9.6900    16.4850 hc         1 QQE       0.050700
     44 H15         14.3270   -10.3590    15.9510 hn         1 QQE       0.507000
     45 H16         12.8430   -15.2440    12.8620 ha         1 QQE       0.146000
     46 H17          8.7580   -14.1050    13.7990 ha         1 QQE       0.124000
     47 H18          9.4640   -14.9600     9.2230 h1         1 QQE       0.043700
     48 H19          8.2440   -12.7580     9.1180 hc         1 QQE       0.048367
     49 H20          7.7250   -13.8360     7.8140 hc         1 QQE       0.048367
     50 H21          6.6900   -13.6030     9.2360 hc         1 QQE       0.048367
     51 H22          7.7370   -18.1580     9.4420 h1         1 QQE       0.058200
     52 H23          9.3370   -17.3830     9.4310 h1         1 QQE       0.058200
     53 H24          6.2070   -16.5540    11.5320 hc         1 QQE       0.063200
     54 H25          6.4060   -18.2970    11.5480 hc         1 QQE       0.063200
     55 H26          7.4150   -18.1600    13.8450 h1         1 QQE       0.025200
     56 H27          7.1540   -16.4030    13.8370 h1         1 QQE       0.025200
     57 H28          5.4200   -17.5540    14.8560 ho         1 QQE       0.441000
     58 C21         10.2450   -16.0100    12.4280 c          1 QQE       0.613700
     59 Cl1         16.0890    -6.6470    12.4510 cl         1 QQE      -0.214000
     60 O22         10.9180   -17.0340    12.3960 o          1 QQE      -0.598100
     61 H6           9.1040   -13.8700    11.3850 h1         1 QQE       0.061200
@<TRIPOS>BOND
     1     1     2 ar  
     2     1    17 1   
     3     1    18 ar  
     4     2    16 1   
     5     2    19 ar  
     6     3    15 1   
     7     3    16 1   
     8     3    17 2   
     9     4    13 1   
    10     4    14 1   
    11     4    15 1   
    12     4    31 1   
    13     5    11 ar  
    14     5    12 ar  
    15     5    32 1   
    16     6    10 ar  
    17     6    11 ar  
    18     6    59 1   
    19     7    20 1   
    20     7    33 1   
    21     7    34 1   
    22     7    35 1   
    23     8    23 1   
    24     8    24 1   
    25     8    36 1   
    26     8    61 1   
    27     9    23 1   
    28     9    27 1   
    29     9    28 1   
    30     9    37 1   
    31    10    13 ar  
    32    10    38 1   
    33    11    39 1   
    34    12    13 ar  
    35    12    40 1   
    36    14    41 1   
    37    14    42 1   
    38    14    43 1   
    39    15    44 1   
    40    18    22 ar  
    41    18    45 1   
    42    19    20 1   
    43    19    21 ar  
    44    21    22 ar  
    45    21    46 1   
    46    22    58 1   
    47    23    58 1   
    48    24    25 1   
    49    24    26 1   
    50    24    47 1   
    51    25    48 1   
    52    25    49 1   
    53    25    50 1   
    54    26    27 1   
    55    27    51 1   
    56    27    52 1   
    57    28    29 1   
    58    28    53 1   
    59    28    54 1   
    60    29    30 1   
    61    29    55 1   
    62    29    56 1   
    63    30    57 1   
    64    58    60 2   
@<TRIPOS>SUBSTRUCTURE
     1 QQE         1 TEMP              0 ****  ****    0 ROOT
