@<TRIPOS>MOLECULE
QQE
   61    64     1     0     0
SMALL
abcg2


@<TRIPOS>ATOM
      1 C4          12.4590   -13.5580    14.1300 ca         1 QQE       0.132400
      2 C5          11.5960   -12.7840    14.9010 ca         1 QQE      -0.010900
      3 C7          13.6210   -12.0280    15.0620 cc         1 QQE       0.773500
      4 C10         15.9220   -11.2140    14.9750 c3         1 QQE       0.296800
      5 C13         16.9790   -10.7540    11.3470 ca         1 QQE      -0.099000
      6 C15         15.3120    -9.1250    11.8560 ca         1 QQE       0.126000
      7 C20          8.0880   -12.4130    15.8520 c3         1 QQE       0.147900
      8 C24          8.7620   -14.5700    11.2580 c6         1 QQE       0.072000
      9 C28          8.3890   -17.0130    11.2210 c6         1 QQE       0.071700
     10 C16         15.1950    -9.6120    13.1490 ca         1 QQE      -0.094000
     11 C14         16.1950    -9.6800    10.9410 ca         1 QQE      -0.097000
     12 C12         16.8740   -11.2550    12.6400 ca         1 QQE      -0.089000
     13 C11         15.9840   -10.6880    13.5490 ca         1 QQE      -0.099300
     14 C33         16.8320   -10.4110    15.9020 c3         1 QQE      -0.102100
     15 N9          14.5690   -11.2050    15.5240 nu         1 QQE      -0.885400
     16 O6          12.3430   -11.7930    15.5080 os         1 QQE      -0.301700
     17 N8          13.7520   -13.0420    14.2520 nd         1 QQE      -0.648100
     18 C3          11.9700   -14.6430    13.4080 ca         1 QQE      -0.066000
     19 C18         10.2320   -13.0090    14.9990 ca         1 QQE       0.168100
     20 O19          9.4990   -12.1880    15.7870 os         1 QQE      -0.332100
     21 C1           9.7410   -14.0850    14.2520 ca         1 QQE      -0.186000
     22 C2          10.5990   -14.8800    13.4790 ca         1 QQE      -0.105600
     23 N23          9.0940   -15.8730    11.8280 n          1 QQE      -0.413800
     24 C25          8.8990   -14.6020     9.7370 c6         1 QQE       0.146300
     25 C32          8.4180   -13.3170     9.1010 c3         1 QQE      -0.088100
     26 O26          8.1340   -15.6810     9.1900 os         1 QQE      -0.455000
     27 C27          8.5620   -16.9360     9.7070 c6         1 QQE       0.144600
     28 C29          6.9160   -17.0560    11.6380 c3         1 QQE      -0.088400
     29 C30          6.7240   -17.1360    13.1390 c3         1 QQE       0.163600
     30 O31          5.3180   -17.2220    13.4030 oh         1 QQE      -0.672000
     31 H1          16.2570   -12.2520    14.9600 h1         1 QQE       0.086700
     32 H2          17.6690   -11.2050    10.6460 ha         1 QQE       0.121000
     33 H3           7.6980   -11.6500    16.5200 h1         1 QQE       0.045700
     34 H4           7.6320   -12.3090    14.8650 h1         1 QQE       0.045700
     35 H5           7.8700   -13.4040    16.2550 h1         1 QQE       0.045700
     36 H7           7.7380   -14.2930    11.5270 h1         1 QQE       0.061200
     37 H8           8.8900   -17.9120    11.5760 h1         1 QQE       0.091700
     38 H9          14.4910    -9.1580    13.8340 ha         1 QQE       0.125000
     39 H10         16.2650    -9.2870     9.9360 ha         1 QQE       0.131000
     40 H11         17.4830   -12.0980    12.9440 ha         1 QQE       0.121000
     41 H12         16.8270   -10.8390    16.9050 hc         1 QQE       0.050700
     42 H13         17.8520   -10.4230    15.5180 hc         1 QQE       0.050700
     43 H14         16.4990    -9.3720    15.9570 hc         1 QQE       0.050700
     44 H15         14.2640   -10.4010    16.0510 hn         1 QQE       0.507000
     45 H16         12.6190   -15.2700    12.8140 ha         1 QQE       0.146000
     46 H17          8.6860   -14.3140    14.2680 ha         1 QQE       0.124000
     47 H18          9.9570   -14.7740     9.4920 h1         1 QQE       0.043700
     48 H19          8.9990   -12.4710     9.4720 hc         1 QQE       0.048367
     49 H20          8.5300   -13.3650     8.0170 hc         1 QQE       0.048367
     50 H21          7.3650   -13.1460     9.3360 hc         1 QQE       0.048367
     51 H22          7.9580   -17.7010     9.2200 h1         1 QQE       0.058200
     52 H23          9.6170   -17.0980     9.4540 h1         1 QQE       0.058200
     53 H24          6.3830   -16.1850    11.2510 hc         1 QQE       0.063200
     54 H25          6.4670   -17.9390    11.1740 hc         1 QQE       0.063200
     55 H26          7.2410   -18.0150    13.5400 h1         1 QQE       0.025200
     56 H27          7.1420   -16.2490    13.6250 h1         1 QQE       0.025200
     57 H28          5.1910   -17.2210    14.3590 ho         1 QQE       0.441000
     58 C21         10.0370   -16.0810    12.7760 c          1 QQE       0.613700
     59 CL1         14.3130    -7.7680    11.3660 cl         1 QQE      -0.214000
     60 O22         10.4210   -17.2100    13.1020 o          1 QQE      -0.598100
     61 H6           9.4320   -13.8170    11.6600 h1         1 QQE       0.061200
@<TRIPOS>BOND
     1     1     2 ar  
     2     1    17 1   
     3     1    18 ar  
     4     2    16 1   
     5     2    19 ar  
     6     3    15 1   
     7     3    16 1   
     8     3    17 2   
     9     4    13 1   
    10     4    14 1   
    11     4    15 1   
    12     4    31 1   
    13     5    11 ar  
    14     5    12 ar  
    15     5    32 1   
    16     6    10 ar  
    17     6    11 ar  
    18     6    59 1   
    19     7    20 1   
    20     7    33 1   
    21     7    34 1   
    22     7    35 1   
    23     8    23 1   
    24     8    24 1   
    25     8    36 1   
    26     8    61 1   
    27     9    23 1   
    28     9    27 1   
    29     9    28 1   
    30     9    37 1   
    31    10    13 ar  
    32    10    38 1   
    33    11    39 1   
    34    12    13 ar  
    35    12    40 1   
    36    14    41 1   
    37    14    42 1   
    38    14    43 1   
    39    15    44 1   
    40    18    22 ar  
    41    18    45 1   
    42    19    20 1   
    43    19    21 ar  
    44    21    22 ar  
    45    21    46 1   
    46    22    58 1   
    47    23    58 1   
    48    24    25 1   
    49    24    26 1   
    50    24    47 1   
    51    25    48 1   
    52    25    49 1   
    53    25    50 1   
    54    26    27 1   
    55    27    51 1   
    56    27    52 1   
    57    28    29 1   
    58    28    53 1   
    59    28    54 1   
    60    29    30 1   
    61    29    55 1   
    62    29    56 1   
    63    30    57 1   
    64    58    60 2   
@<TRIPOS>SUBSTRUCTURE
     1 QQE         1 TEMP              0 ****  ****    0 ROOT
