@<TRIPOS>MOLECULE
QQF
   48    50     1     0     0
SMALL
No Charge or Current Charge


@<TRIPOS>ATOM
      1 N1         -20.2430     6.1910    26.1180 ns         1 QQF      -0.164000
      2 C4         -22.6430     4.2330    27.2640 c3         1 QQF      -0.102100
      3 C5         -20.4770     5.5340    27.3220 c          1 QQF       0.610100
      4 C6         -19.0230     6.4240    25.4280 ca         1 QQF      -0.074000
      5 C7         -18.9240     5.9910    24.0890 ca         1 QQF       0.305900
      6 C8         -16.7400     6.7280    23.9010 ca         1 QQF       0.358900
      7 C10        -15.6000     7.8570    25.7450 ca         1 QQF      -0.092000
      8 C13        -17.9200     7.6160    27.3170 ca         1 QQF      -0.083000
      9 C15        -22.1010     5.4890    29.3740 ca         1 QQF      -0.074300
     10 C17        -22.9760     6.3680    31.4980 ca         1 QQF      -0.101000
     11 C20        -21.4830     4.4480    30.1130 ca         1 QQF      -0.062000
     12 C19        -21.5880     4.3790    31.5120 ca         1 QQF       0.121000
     13 C18        -22.3320     5.3470    32.2100 ca         1 QQF       0.130000
     14 Cl         -22.4890     5.2920    33.9670 cl         1 QQF      -0.180000
     15 C16        -22.8710     6.4360    30.0980 ca         1 QQF      -0.081000
     16 C3         -21.9830     5.5200    27.8190 c3         1 QQF       0.104700
     17 N          -22.7360     6.6530    27.2160 ns         1 QQF      -0.509900
     18 C2         -22.4180     7.9960    27.3040 c          1 QQF       0.595100
     19 O1         -21.4290     8.3930    27.9040 o          1 QQF      -0.588100
     20 C1         -23.4040     8.9480    26.5870 c3         1 QQF       0.067600
     21 O          -24.4180     8.2270    25.8360 os         1 QQF      -0.483000
     22 C          -25.3640     9.0660    25.1500 c3         1 QQF       0.149900
     23 O2         -19.5570     5.0120    27.9460 o          1 QQF      -0.558100
     24 C14        -17.9070     7.0790    26.0090 ca         1 QQF      -0.006000
     25 C12        -16.7790     8.2530    27.8340 ca         1 QQF      -0.094000
     26 C11        -15.6180     8.3690    27.0530 ca         1 QQF      -0.104000
     27 C9         -16.7420     7.2210    25.2210 ca         1 QQF      -0.091000
     28 N2         -17.8120     6.1290    23.3340 nb         1 QQF      -0.657000
     29 H1         -21.0730     6.5350    25.6520 hn         1 QQF       0.160000
     30 H2         -22.1100     3.3330    27.5940 hc         1 QQF       0.055033
     31 H3         -23.6830     4.1530    27.6020 hc         1 QQF       0.055033
     32 H4         -22.6410     4.2330    26.1670 hc         1 QQF       0.055033
     33 H5         -19.7670     5.4960    23.6070 h4         1 QQF       0.017100
     34 H6         -15.8570     6.8270    23.2720 h4         1 QQF       0.020100
     35 H7         -14.7020     7.9610    25.1390 ha         1 QQF       0.116000
     36 H8         -18.8080     7.5600    27.9400 ha         1 QQF       0.149000
     37 H9         -23.5660     7.1080    32.0330 ha         1 QQF       0.132000
     38 H10        -20.9130     3.6740    29.6070 ha         1 QQF       0.145000
     39 H11        -23.4100     7.2320    29.5950 ha         1 QQF       0.118000
     40 H12        -23.5880     6.4560    26.6980 hn         1 QQF       0.343500
     41 H13        -22.8140     9.5920    25.9220 h1         1 QQF       0.061700
     42 H14        -23.8690     9.5760    27.3570 h1         1 QQF       0.061700
     43 H15        -26.0960     8.4530    24.6080 h1         1 QQF       0.039367
     44 H16        -25.9100     9.7010    25.8600 h1         1 QQF       0.039367
     45 H17        -24.8570     9.7140    24.4230 h1         1 QQF       0.039367
     46 H18        -16.7960     8.6610    28.8430 ha         1 QQF       0.119000
     47 H19        -14.7370     8.8630    27.4560 ha         1 QQF       0.115000
     48 Cl1        -20.7800     3.0630    32.3660 cl         1 QQF      -0.178000
@<TRIPOS>BOND
     1     1     3 1   
     2     1     4 1   
     3     1    29 1   
     4     2    16 1   
     5     2    30 1   
     6     2    31 1   
     7     2    32 1   
     8     3    16 1   
     9     3    23 2   
    10     4     5 ar  
    11     4    24 ar  
    12     5    28 ar  
    13     5    33 1   
    14     6    27 ar  
    15     6    28 ar  
    16     6    34 1   
    17     7    26 ar  
    18     7    27 ar  
    19     7    35 1   
    20     8    24 ar  
    21     8    25 ar  
    22     8    36 1   
    23     9    11 ar  
    24     9    15 ar  
    25     9    16 1   
    26    10    13 ar  
    27    10    15 ar  
    28    10    37 1   
    29    11    12 ar  
    30    11    38 1   
    31    12    13 ar  
    32    12    48 1   
    33    13    14 1   
    34    15    39 1   
    35    16    17 1   
    36    17    18 1   
    37    17    40 1   
    38    18    19 2   
    39    18    20 1   
    40    20    21 1   
    41    20    41 1   
    42    20    42 1   
    43    21    22 1   
    44    22    43 1   
    45    22    44 1   
    46    22    45 1   
    47    24    27 ar  
    48    25    26 ar  
    49    25    46 1   
    50    26    47 1   
@<TRIPOS>SUBSTRUCTURE
     1 QQF         1 TEMP              0 ****  ****    0 ROOT
