@<TRIPOS>MOLECULE
QQF
   48    50     1     0     0
SMALL
abcg2


@<TRIPOS>ATOM
      1 N1         -20.2210     6.1130    26.1250 ns         1 QQF      -0.164000
      2 C4         -22.4990     4.3160    27.0700 c3         1 QQF      -0.102100
      3 C5         -20.4410     5.7000    27.3960 c          1 QQF       0.610100
      4 C6         -18.9350     6.1430    25.5230 ca         1 QQF      -0.074000
      5 C7         -18.6510     5.2670    24.5060 ca         1 QQF       0.305900
      6 C8         -16.5310     6.0770    24.2270 ca         1 QQF       0.358900
      7 C10        -15.6750     7.9380    25.6160 ca         1 QQF      -0.092000
      8 C13        -18.1540     8.0570    26.9360 ca         1 QQF      -0.083000
      9 C15        -22.1550     5.4320    29.2800 ca         1 QQF      -0.074300
     10 C17        -23.2410     6.0730    31.3460 ca         1 QQF      -0.101000
     11 C20        -21.5180     4.4000    29.9670 ca         1 QQF      -0.062000
     12 C19        -21.7260     4.2140    31.3260 ca         1 QQF       0.121000
     13 C18        -22.5880     5.0560    32.0260 ca         1 QQF       0.130000
     14 CL         -22.8710     4.8540    33.7310 cl         1 QQF      -0.180000
     15 C16        -23.0270     6.2550    29.9860 ca         1 QQF      -0.081000
     16 C3         -21.9520     5.5780    27.7710 c3         1 QQF       0.104700
     17 N          -22.6760     6.7200    27.2310 ns         1 QQF      -0.509900
     18 C2         -22.3290     8.0010    27.4570 c          1 QQF       0.595100
     19 O1         -21.3370     8.3350    28.0980 o          1 QQF      -0.588100
     20 C1         -23.2440     9.0480    26.8550 c3         1 QQF       0.067600
     21 O          -24.3410     8.4530    26.1990 os         1 QQF      -0.483000
     22 C          -25.2290     9.4100    25.6340 c3         1 QQF       0.149900
     23 O2         -19.5420     5.3710    28.1530 o          1 QQF      -0.558100
     24 C14        -17.9530     7.0820    25.9320 ca         1 QQF      -0.006000
     25 C12        -17.1420     8.9270    27.2570 ca         1 QQF      -0.094000
     26 C11        -15.8920     8.8670    26.6000 ca         1 QQF      -0.104000
     27 C9         -16.7000     7.0320    25.2570 ca         1 QQF      -0.091000
     28 N2         -17.4630     5.2310    23.8510 nb         1 QQF      -0.657000
     29 H1         -21.0160     6.3210    25.5390 hn         1 QQF       0.160000
     30 H2         -21.9520     3.4360    27.4010 hc         1 QQF       0.055033
     31 H3         -23.5510     4.1900    27.3290 hc         1 QQF       0.055033
     32 H4         -22.4050     4.4020    25.9880 hc         1 QQF       0.055033
     33 H5         -19.4030     4.5530    24.1890 h4         1 QQF       0.017100
     34 H6         -15.5790     6.0330    23.7050 h4         1 QQF       0.020100
     35 H7         -14.7260     7.8860    25.0970 ha         1 QQF       0.116000
     36 H8         -19.1090     8.1140    27.4380 ha         1 QQF       0.149000
     37 H9         -23.9190     6.7220    31.8830 ha         1 QQF       0.132000
     38 H10        -20.8450     3.7300    29.4560 ha         1 QQF       0.145000
     39 H11        -23.5640     7.0470    29.4870 ha         1 QQF       0.118000
     40 H12        -23.5380     6.5590    26.7290 hn         1 QQF       0.343500
     41 H13        -22.6460     9.6530    26.1620 h1         1 QQF       0.061700
     42 H14        -23.5760     9.7030    27.6700 h1         1 QQF       0.061700
     43 H15        -26.0350     8.8570    25.1570 h1         1 QQF       0.039367
     44 H16        -25.6420    10.0630    26.4100 h1         1 QQF       0.039367
     45 H17        -24.7140    10.0240    24.8880 h1         1 QQF       0.039367
     46 H18        -17.3010     9.6740    28.0240 ha         1 QQF       0.119000
     47 H19        -15.1100     9.5630    26.8760 ha         1 QQF       0.115000
     48 CL1        -20.8930     2.9110    32.1270 cl         1 QQF      -0.178000
@<TRIPOS>BOND
     1     1     3 1   
     2     1     4 1   
     3     1    29 1   
     4     2    16 1   
     5     2    30 1   
     6     2    31 1   
     7     2    32 1   
     8     3    16 1   
     9     3    23 2   
    10     4     5 ar  
    11     4    24 ar  
    12     5    28 ar  
    13     5    33 1   
    14     6    27 ar  
    15     6    28 ar  
    16     6    34 1   
    17     7    26 ar  
    18     7    27 ar  
    19     7    35 1   
    20     8    24 ar  
    21     8    25 ar  
    22     8    36 1   
    23     9    11 ar  
    24     9    15 ar  
    25     9    16 1   
    26    10    13 ar  
    27    10    15 ar  
    28    10    37 1   
    29    11    12 ar  
    30    11    38 1   
    31    12    13 ar  
    32    12    48 1   
    33    13    14 1   
    34    15    39 1   
    35    16    17 1   
    36    17    18 1   
    37    17    40 1   
    38    18    19 2   
    39    18    20 1   
    40    20    21 1   
    41    20    41 1   
    42    20    42 1   
    43    21    22 1   
    44    22    43 1   
    45    22    44 1   
    46    22    45 1   
    47    24    27 ar  
    48    25    26 ar  
    49    25    46 1   
    50    26    47 1   
@<TRIPOS>SUBSTRUCTURE
     1 QQF         1 TEMP              0 ****  ****    0 ROOT
