@<TRIPOS>MOLECULE
QQG
   51    54     1     0     0
SMALL
abcg2


@<TRIPOS>ATOM
      1 C10        -20.0080    24.0290    25.8840 c6         1 QQG      -0.060900
      2 C15        -20.4460    24.9010    29.4050 ca         1 QQG       0.279000
      3 C17        -22.1810    26.4080    30.0570 ca         1 QQG      -0.076000
      4 C20        -21.0530    24.7320    28.1490 ca         1 QQG      -0.139300
      5 C21        -20.8450    22.3180    27.4890 c6         1 QQG      -0.060900
      6 C22        -22.0420    22.1250    26.5780 c6         1 QQG       0.169800
      7 C24        -24.4920    18.7090    23.7330 ca         1 QQG      -0.073500
      8 C03        -23.4300    17.8100    23.7940 ca         1 QQG      -0.157600
      9 C04        -22.1460    18.2990    24.0270 ca         1 QQG      -0.073500
     10 C05        -21.9320    19.6530    24.2150 ca         1 QQG      -0.110000
     11 C06        -22.9910    20.5560    24.1570 ca         1 QQG      -0.059300
     12 C09        -21.2050    23.7220    24.9970 c6         1 QQG       0.169800
     13 C11        -20.2320    23.7240    27.3650 c5         1 QQG       0.001300
     14 C12        -18.9050    23.8010    28.1410 c5         1 QQG       0.193800
     15 C16        -20.9970    25.7390    30.3650 ca         1 QQG      -0.160000
     16 C18        -22.7920    26.2510    28.8230 ca         1 QQG      -0.155000
     17 C19        -22.2260    25.4030    27.8650 ca         1 QQG      -0.062000
     18 C23        -24.2700    20.0660    23.9150 ca         1 QQG      -0.110000
     19 N08        -21.6790    22.3650    25.1930 n3         1 QQG      -0.725600
     20 N13        -19.2970    24.1420    29.4970 nh         1 QQG      -0.777400
     21 N25        -24.7800    15.8520    23.9780 ns         1 QQG      -0.393400
     22 O01        -22.7230    15.6580    23.0690 o          1 QQG      -0.574100
     23 O26        -25.1170    14.5630    23.7150 oh         1 QQG      -0.412100
     24 H1         -19.1590    23.4290    25.5380 hc         1 QQG       0.052200
     25 H2         -19.7260    25.0760    25.7540 hc         1 QQG       0.052200
     26 H3         -22.6190    27.0700    30.7930 ha         1 QQG       0.109000
     27 H4         -21.1320    22.1150    28.5240 hc         1 QQG       0.052200
     28 H5         -20.0830    21.5790    27.2200 hc         1 QQG       0.052200
     29 H6         -22.8780    22.7730    26.8950 h1         1 QQG       0.033950
     30 H7         -22.3990    21.0980    26.6800 h1         1 QQG       0.033950
     31 H8         -25.4990    18.3700    23.5220 ha         1 QQG       0.124000
     32 H9         -21.3100    17.6130    24.0690 ha         1 QQG       0.124000
     33 H10        -20.9340    20.0200    24.4160 ha         1 QQG       0.125500
     34 H11        -22.4910    22.4210    23.2940 h1         1 QQG       0.040700
     35 H12        -23.7000    22.5370    24.5580 h1         1 QQG       0.040700
     36 H13        -20.9050    23.8380    23.9520 h1         1 QQG       0.033950
     37 H14        -22.0030    24.4630    25.1640 h1         1 QQG       0.033950
     38 H15        -18.3440    22.8640    28.1110 h1         1 QQG       0.044200
     39 H16        -18.2650    24.5880    27.7110 h1         1 QQG       0.044200
     40 H17        -18.6550    24.5020    31.4520 h1         1 QQG       0.036033
     41 H18        -17.4740    23.7390    30.3990 h1         1 QQG       0.036033
     42 H19        -17.8130    25.4690    30.2300 h1         1 QQG       0.036033
     43 H20        -20.5260    25.8840    31.3290 ha         1 QQG       0.116000
     44 H21        -23.7050    26.7850    28.5960 ha         1 QQG       0.112000
     45 H22        -22.7110    25.2970    26.9040 ha         1 QQG       0.109000
     46 H23        -25.1070    20.7530    23.8630 ha         1 QQG       0.125500
     47 H25        -25.4650    16.3840    24.4940 hn         1 QQG       0.341500
     48 H26        -24.7650    14.0290    24.4410 ho         1 QQG       0.436000
     49 C07        -22.7540    22.0390    24.2860 c3         1 QQG       0.211100
     50 C14        -18.2630    24.4890    30.4350 c3         1 QQG       0.191100
     51 C02        -23.5980    16.3460    23.5690 c          1 QQG       0.619700
@<TRIPOS>BOND
     1     1    12 1   
     2     1    13 1   
     3     1    24 1   
     4     1    25 1   
     5     2     4 ar  
     6     2    15 ar  
     7     2    20 1   
     8     3    15 ar  
     9     3    16 ar  
    10     3    26 1   
    11     4    13 1   
    12     4    17 ar  
    13     5     6 1   
    14     5    13 1   
    15     5    27 1   
    16     5    28 1   
    17     6    19 1   
    18     6    29 1   
    19     6    30 1   
    20     7     8 ar  
    21     7    18 ar  
    22     7    31 1   
    23     8     9 ar  
    24     8    51 1   
    25     9    10 ar  
    26     9    32 1   
    27    10    11 ar  
    28    10    33 1   
    29    11    18 ar  
    30    11    49 1   
    31    12    19 1   
    32    12    36 1   
    33    12    37 1   
    34    13    14 1   
    35    14    20 1   
    36    14    38 1   
    37    14    39 1   
    38    15    43 1   
    39    16    17 ar  
    40    16    44 1   
    41    17    45 1   
    42    18    46 1   
    43    19    49 1   
    44    20    50 1   
    45    21    23 1   
    46    21    47 1   
    47    21    51 1   
    48    22    51 2   
    49    23    48 1   
    50    34    49 1   
    51    35    49 1   
    52    40    50 1   
    53    41    50 1   
    54    42    50 1   
@<TRIPOS>SUBSTRUCTURE
     1 QQG         1 TEMP              0 ****  ****    0 ROOT
