@<TRIPOS>MOLECULE
QQG
   51    54     1     0     0
SMALL
No Charge or Current Charge


@<TRIPOS>ATOM
      1 C10        -19.8930    24.0520    26.0460 c6         1 QQG      -0.060900
      2 C15        -20.4320    25.1410    29.3770 ca         1 QQG       0.279000
      3 C17        -22.3990    26.4110    29.9690 ca         1 QQG      -0.076000
      4 C20        -21.0710    24.5750    28.2890 ca         1 QQG      -0.139300
      5 C21        -20.6930    22.1430    27.4920 c6         1 QQG      -0.060900
      6 C22        -21.8520    21.9110    26.4920 c6         1 QQG       0.169800
      7 C24        -24.4130    18.6940    24.2690 ca         1 QQG      -0.073500
      8 C03        -23.4560    17.7960    23.7340 ca         1 QQG      -0.157600
      9 C04        -22.2020    18.3140    23.3340 ca         1 QQG      -0.073500
     10 C05        -21.9150    19.6840    23.4570 ca         1 QQG      -0.110000
     11 C06        -22.8720    20.5680    23.9850 ca         1 QQG      -0.059300
     12 C09        -21.0740    23.7750    25.0830 c6         1 QQG       0.169800
     13 C11        -20.1470    23.6040    27.5180 c5         1 QQG       0.001300
     14 C12        -18.8010    23.6950    28.3820 c5         1 QQG       0.193800
     15 C16        -21.0640    26.0560    30.2320 ca         1 QQG      -0.160000
     16 C18        -23.0680    25.8460    28.8650 ca         1 QQG      -0.155000
     17 C19        -22.4110    24.9280    28.0210 ca         1 QQG      -0.062000
     18 C23        -24.1210    20.0640    24.3900 ca         1 QQG      -0.110000
     19 N08        -21.4920    22.3480    25.1150 n3         1 QQG      -0.725600
     20 N13        -19.1370    24.6620    29.4570 nh         1 QQG      -0.777400
     21 N25        -25.0050    15.8720    23.9360 ns         1 QQG      -0.393400
     22 O01        -22.8740    15.5280    23.1910 o          1 QQG      -0.574100
     23 O26        -25.4530    14.5350    23.6030 oh         1 QQG      -0.412100
     24 H1         -19.0110    23.5240    25.6590 hc         1 QQG       0.052200
     25 H2         -19.6420    25.1200    26.0200 hc         1 QQG       0.052200
     26 H3         -22.9130    27.1190    30.6160 ha         1 QQG       0.109000
     27 H4         -21.0140    21.8480    28.5000 hc         1 QQG       0.052200
     28 H5         -19.8750    21.4610    27.2240 hc         1 QQG       0.052200
     29 H6         -22.7570    22.4250    26.8410 h1         1 QQG       0.033950
     30 H7         -22.0880    20.8370    26.4990 h1         1 QQG       0.033950
     31 H8         -25.3890    18.3490    24.6020 ha         1 QQG       0.124000
     32 H9         -21.4410    17.6530    22.9220 ha         1 QQG       0.124000
     33 H10        -20.9440    20.0610    23.1470 ha         1 QQG       0.125500
     34 H11        -22.2390    22.4190    23.1310 h1         1 QQG       0.040700
     35 H12        -23.4700    22.6010    24.3790 h1         1 QQG       0.040700
     36 H13        -20.7550    24.0460    24.0660 h1         1 QQG       0.033950
     37 H14        -21.9170    24.4350    25.3250 h1         1 QQG       0.033950
     38 H15        -18.5240    22.7180    28.8040 h1         1 QQG       0.044200
     39 H16        -17.9560    24.0530    27.7780 h1         1 QQG       0.044200
     40 H17        -18.5760    24.7940    31.5030 h1         1 QQG       0.036033
     41 H18        -17.2220    24.5540    30.3740 h1         1 QQG       0.036033
     42 H19        -18.0100    26.1460    30.4790 h1         1 QQG       0.036033
     43 H20        -20.5370    26.4840    31.0790 ha         1 QQG       0.116000
     44 H21        -24.1010    26.1210    28.6620 ha         1 QQG       0.112000
     45 H22        -22.9530    24.5120    27.1800 ha         1 QQG       0.109000
     46 H23        -24.8690    20.7360    24.8060 ha         1 QQG       0.125500
     47 H25        -25.7370    16.5580    24.1040 hn         1 QQG       0.341500
     48 H26        -25.8190    14.1940    24.4530 ho         1 QQG       0.436000
     49 C07        -22.5520    22.0560    24.1190 c3         1 QQG       0.211100
     50 C14        -18.1860    25.0620    30.5120 c3         1 QQG       0.191100
     51 C02        -23.7310    16.3110    23.5860 c          1 QQG       0.619700
@<TRIPOS>BOND
     1     1    12 1   
     2     1    13 1   
     3     1    24 1   
     4     1    25 1   
     5     2     4 ar  
     6     2    15 ar  
     7     2    20 1   
     8     3    15 ar  
     9     3    16 ar  
    10     3    26 1   
    11     4    13 1   
    12     4    17 ar  
    13     5     6 1   
    14     5    13 1   
    15     5    27 1   
    16     5    28 1   
    17     6    19 1   
    18     6    29 1   
    19     6    30 1   
    20     7     8 ar  
    21     7    18 ar  
    22     7    31 1   
    23     8     9 ar  
    24     8    51 1   
    25     9    10 ar  
    26     9    32 1   
    27    10    11 ar  
    28    10    33 1   
    29    11    18 ar  
    30    11    49 1   
    31    12    19 1   
    32    12    36 1   
    33    12    37 1   
    34    13    14 1   
    35    14    20 1   
    36    14    38 1   
    37    14    39 1   
    38    15    43 1   
    39    16    17 ar  
    40    16    44 1   
    41    17    45 1   
    42    18    46 1   
    43    19    49 1   
    44    20    50 1   
    45    21    23 1   
    46    21    47 1   
    47    21    51 1   
    48    22    51 2   
    49    23    48 1   
    50    34    49 1   
    51    35    49 1   
    52    40    50 1   
    53    41    50 1   
    54    42    50 1   
@<TRIPOS>SUBSTRUCTURE
     1 QQG         1 TEMP              0 ****  ****    0 ROOT
