@<TRIPOS>MOLECULE
QQH
   47    49     1     0     0
SMALL
No Charge or Current Charge


@<TRIPOS>ATOM
      1 C01         69.1120    99.5540    12.9440 c3         1 QQH      -0.050800
      2 C02         67.8160    99.4270    13.7430 ca         1 QQH      -0.071300
      3 C03         67.3630    98.1350    14.0730 ca         1 QQH      -0.095000
      4 C04         66.1730    97.9560    14.7900 ca         1 QQH      -0.108000
      5 C05         65.4210    99.0690    15.1820 ca         1 QQH      -0.105000
      6 C06         65.8510   100.3740    14.8680 ca         1 QQH      -0.096300
      7 C07         64.9720   101.5520    15.3020 c3         1 QQH       0.007100
      8 C08         64.3180   102.2680    14.1400 cc         1 QQH      -0.000200
      9 C09         63.7550   101.5850    13.0780 cd         1 QQH      -0.274200
     10 C10         63.1010   102.2210    11.9210 c          1 QQH       0.571200
     11 O11         62.6140   101.5740    11.0030 o          1 QQH      -0.492000
     12 N12         63.0630   103.6200    11.9730 n          1 QQH      -0.206000
     13 C13         63.6790   104.3000    12.9930 cd         1 QQH       0.272200
     14 S14         63.5470   106.0450    12.7480 ss         1 QQH      -0.334600
     15 C15         62.1440   105.7730    11.5660 c5         1 QQH       0.095600
     16 C16         62.4430   104.4110    10.8730 c5         1 QQH      -0.087300
     17 C17         63.3650   104.6610     9.6510 c          1 QQH       0.724000
     18 O18         64.5170   104.2490     9.6620 o          1 QQH      -0.673000
     19 O19         62.8840   105.2130     8.6710 o          1 QQH      -0.673000
     20 C20         64.2820   103.7120    14.1050 cc         1 QQH      -0.220000
     21 N21         64.8620   104.6430    15.1770 nx         1 QQH      -0.529000
     22 C22         63.7980   105.4400    15.9410 c3         1 QQH       0.083900
     23 C23         66.0750   105.4550    14.7030 c3         1 QQH       0.083900
     24 C24         67.0630   100.5640    14.1490 ca         1 QQH      -0.054300
     25 C25         67.5320   101.9860    13.8060 c3         1 QQH      -0.054800
     26 H011        69.8950   100.0390    13.5380 hc         1 QQH       0.047367
     27 H012        69.4990    98.5760    12.6340 hc         1 QQH       0.047367
     28 H013        68.9590   100.1420    12.0320 hc         1 QQH       0.047367
     29 H031        67.9330    97.2600    13.7690 ha         1 QQH       0.117000
     30 H041        65.8320    96.9530    15.0370 ha         1 QQH       0.118000
     31 H051        64.4940    98.9140    15.7300 ha         1 QQH       0.107000
     32 H071        65.5710   102.2370    15.9100 hc         1 QQH       0.039200
     33 H072        64.1800   101.2040    15.9760 hc         1 QQH       0.039200
     34 H091        63.7600   100.5030    13.0350 ha         1 QQH       0.228000
     35 H151        62.0480   106.6100    10.8610 h1         1 QQH       0.095700
     36 H152        61.2110   105.7120    12.1430 h1         1 QQH       0.095700
     37 H161        61.5240   103.9470    10.4960 h1         1 QQH       0.116700
     38 H221        64.2560   105.9400    16.7970 hx         1 QQH       0.092867
     39 H222        63.3550   106.1900    15.2840 hx         1 QQH       0.092867
     40 H223        63.0160   104.7610    16.2890 hx         1 QQH       0.092867
     41 H231        66.5490   105.9410    15.5590 hx         1 QQH       0.092867
     42 H232        66.7910   104.7900    14.2170 hx         1 QQH       0.092867
     43 H233        65.7540   106.2170    13.9920 hx         1 QQH       0.092867
     44 H253        68.5760   102.0360    13.4840 hc         1 QQH       0.048367
     45 H252        66.9230   102.4140    13.0010 hc         1 QQH       0.048367
     46 H251        67.4580   102.6510    14.6730 hc         1 QQH       0.048367
     47 H211        65.2490   103.9840    15.8890 hn         1 QQH       0.489000
@<TRIPOS>BOND
     1     1     2 1   
     2     1    26 1   
     3     1    27 1   
     4     1    28 1   
     5     2     3 ar  
     6     2    24 ar  
     7     3     4 ar  
     8     3    29 1   
     9     4     5 ar  
    10     4    30 1   
    11     5     6 ar  
    12     5    31 1   
    13     6     7 1   
    14     6    24 ar  
    15     7     8 1   
    16     7    32 1   
    17     7    33 1   
    18     8     9 2   
    19     8    20 1   
    20     9    10 1   
    21     9    34 1   
    22    10    11 2   
    23    10    12 1   
    24    12    13 1   
    25    12    16 1   
    26    13    14 1   
    27    13    20 2   
    28    14    15 1   
    29    15    16 1   
    30    15    35 1   
    31    15    36 1   
    32    16    17 1   
    33    16    37 1   
    34    17    18 1   
    35    17    19 1   
    36    20    21 1   
    37    21    22 1   
    38    21    23 1   
    39    21    47 1   
    40    22    38 1   
    41    22    39 1   
    42    22    40 1   
    43    23    41 1   
    44    23    42 1   
    45    23    43 1   
    46    24    25 1   
    47    25    44 1   
    48    25    45 1   
    49    25    46 1   
@<TRIPOS>SUBSTRUCTURE
     1 QQH         1 TEMP              0 ****  ****    0 ROOT
