@<TRIPOS>MOLECULE
QQH
   47    49     1     0     0
SMALL
abcg2


@<TRIPOS>ATOM
      1 C01         68.8940    98.9200    12.8550 c3         1 QQH      -0.050800
      2 C02         67.7100    99.1390    13.7570 ca         1 QQH      -0.071300
      3 C03         67.0930    98.0490    14.3680 ca         1 QQH      -0.095000
      4 C04         65.9940    98.2220    15.2000 ca         1 QQH      -0.108000
      5 C05         65.5060    99.5000    15.4260 ca         1 QQH      -0.105000
      6 C06         66.1060   100.6080    14.8280 ca         1 QQH      -0.096300
      7 C07         65.5260   101.9730    15.1030 c3         1 QQH       0.007100
      8 C08         64.7030   102.5670    13.9750 cc         1 QQH      -0.000200
      9 C09         64.3830   101.8350    12.8700 cd         1 QQH      -0.274200
     10 C10         63.6220   102.3650    11.7790 c          1 QQH       0.571200
     11 O11         63.3290   101.7560    10.7460 o          1 QQH      -0.492000
     12 N12         63.2080   103.6910    11.9500 n          1 QQH      -0.206000
     13 C13         63.5020   104.4450    13.0430 cd         1 QQH       0.272200
     14 S14         62.8490   106.0670    12.8970 ss         1 QQH      -0.334600
     15 C15         61.8240   105.5580    11.4680 c5         1 QQH       0.095600
     16 C16         62.6010   104.4170    10.8320 c5         1 QQH      -0.087300
     17 C17         63.6760   104.9280     9.8120 c          1 QQH       0.724000
     18 O18         64.8760   104.7010    10.0660 o          1 QQH      -0.673000
     19 O19         63.1870   105.5280     8.8290 o          1 QQH      -0.673000
     20 C20         64.2360   103.9080    14.0700 cc         1 QQH      -0.220000
     21 N21         64.5520   104.6840    15.2830 nx         1 QQH      -0.529000
     22 C22         63.3480   105.0740    16.0990 c3         1 QQH       0.083900
     23 C23         65.4770   105.8460    15.0350 c3         1 QQH       0.083900
     24 C24         67.2150   100.4370    13.9850 ca         1 QQH      -0.054300
     25 C25         67.8790   101.6000    13.2970 c3         1 QQH      -0.054800
     26 H011        69.7810    99.4420    13.2250 hc         1 QQH       0.047367
     27 H012        69.1310    97.8590    12.7780 hc         1 QQH       0.047367
     28 H013        68.7030    99.3020    11.8480 hc         1 QQH       0.047367
     29 H031        67.4810    97.0540    14.1850 ha         1 QQH       0.117000
     30 H041        65.5230    97.3660    15.6670 ha         1 QQH       0.118000
     31 H051        64.6480    99.6470    16.0720 ha         1 QQH       0.107000
     32 H071        66.3380   102.6630    15.3530 hc         1 QQH       0.039200
     33 H072        64.8910   101.9090    15.9920 hc         1 QQH       0.039200
     34 H091        64.7230   100.8160    12.7670 ha         1 QQH       0.228000
     35 H151        61.7190   106.4010    10.7940 h1         1 QQH       0.095700
     36 H152        60.8490   105.2450    11.8390 h1         1 QQH       0.095700
     37 H161        61.9320   103.7420    10.3050 h1         1 QQH       0.116700
     38 H221        63.7090   105.5080    17.0280 hx         1 QQH       0.092867
     39 H222        62.7590   105.7960    15.5460 hx         1 QQH       0.092867
     40 H223        62.7720   104.1730    16.2910 hx         1 QQH       0.092867
     41 H231        65.7670   106.2500    16.0010 hx         1 QQH       0.092867
     42 H232        66.3420   105.4720    14.4940 hx         1 QQH       0.092867
     43 H233        64.9580   106.5990    14.4530 hx         1 QQH       0.092867
     44 H253        67.7530   101.5290    12.2130 hc         1 QQH       0.048367
     45 H252        67.4780   102.5610    13.6090 hc         1 QQH       0.048367
     46 H251        68.9540   101.6070    13.4900 hc         1 QQH       0.048367
     47 H211        65.0790   104.0490    15.8840 hn         1 QQH       0.489000
@<TRIPOS>BOND
     1     1     2 1   
     2     1    26 1   
     3     1    27 1   
     4     1    28 1   
     5     2     3 ar  
     6     2    24 ar  
     7     3     4 ar  
     8     3    29 1   
     9     4     5 ar  
    10     4    30 1   
    11     5     6 ar  
    12     5    31 1   
    13     6     7 1   
    14     6    24 ar  
    15     7     8 1   
    16     7    32 1   
    17     7    33 1   
    18     8     9 2   
    19     8    20 1   
    20     9    10 1   
    21     9    34 1   
    22    10    11 2   
    23    10    12 1   
    24    12    13 1   
    25    12    16 1   
    26    13    14 1   
    27    13    20 2   
    28    14    15 1   
    29    15    16 1   
    30    15    35 1   
    31    15    36 1   
    32    16    17 1   
    33    16    37 1   
    34    17    18 1   
    35    17    19 1   
    36    20    21 1   
    37    21    22 1   
    38    21    23 1   
    39    21    47 1   
    40    22    38 1   
    41    22    39 1   
    42    22    40 1   
    43    23    41 1   
    44    23    42 1   
    45    23    43 1   
    46    24    25 1   
    47    25    44 1   
    48    25    45 1   
    49    25    46 1   
@<TRIPOS>SUBSTRUCTURE
     1 QQH         1 TEMP              0 ****  ****    0 ROOT
