@<TRIPOS>MOLECULE
QQI
   48    51     1     0     0
SMALL
No Charge or Current Charge


@<TRIPOS>ATOM
      1 C18        -49.0820   -29.3700     6.8890 ca         1 QQI       0.495900
      2 C16        -49.2830   -29.5530     4.5950 ca         1 QQI       0.405900
      3 C15        -47.8890   -29.5060     4.4080 ca         1 QQI      -0.209600
      4 C14        -47.3550   -29.5740     3.0070 c          1 QQI       0.611700
      5 C12        -45.3910   -29.6820     1.5460 c5         1 QQI       0.166000
      6 C11        -45.2390   -28.3670     0.8170 ca         1 QQI      -0.064300
      7 C10        -46.2090   -27.7290     0.0260 ca         1 QQI      -0.110000
      8 C20        -50.9370   -28.8610     8.5060 c          1 QQI       0.666100
      9 C02        -43.5600   -30.9340     3.0090 c          1 QQI       0.720000
     10 C03        -43.8570   -30.0300     1.7800 c5         1 QQI      -0.204700
     11 C04        -43.1070   -28.6420     1.8860 c5         1 QQI      -0.013100
     12 C05        -43.9920   -27.7960     1.0040 ca         1 QQI      -0.091300
     13 C06        -43.6690   -26.5620     0.4120 ca         1 QQI       0.116100
     14 C08        -44.6300   -25.9110    -0.3820 ca         1 QQI      -0.206000
     15 C09        -45.8990   -26.4940    -0.5770 ca         1 QQI      -0.101000
     16 C22        -52.4240   -28.7060    10.4910 cx         1 QQI       0.069700
     17 C23        -52.7340   -29.3270    11.8300 cx         1 QQI      -0.137900
     18 C24        -53.5510   -29.7000    10.6170 cx         1 QQI      -0.137900
     19 C26        -47.6840   -29.3440     6.8100 ca         1 QQI      -0.230000
     20 C27        -47.0660   -29.4020     5.5520 ca         1 QQI      -0.004000
     21 N13        -45.9840   -29.5520     2.8750 ns         1 QQI      -0.482900
     22 N17        -49.8750   -29.4990     5.8110 nb         1 QQI      -0.699000
     23 N19        -49.7260   -29.3840     8.1320 ns         1 QQI      -0.349900
     24 N21        -51.2280   -29.1350     9.8200 ns         1 QQI      -0.513900
     25 O01        -43.0770   -32.0380     2.8110 o          1 QQI      -0.724500
     26 O07        -42.4430   -25.9950     0.6010 oh         1 QQI      -0.540100
     27 O25        -51.6770   -28.2070     7.7860 o          1 QQI      -0.579100
     28 O28        -48.1010   -29.6460     2.0400 o          1 QQI      -0.665100
     29 O29        -43.7700   -30.5150     4.1390 o          1 QQI      -0.724500
     30 H161       -49.9630   -29.6440     3.7480 h4         1 QQI       0.041100
     31 H121       -45.8880   -30.4450     0.9310 h1         1 QQI       0.065700
     32 H101       -47.1880   -28.1810    -0.1180 ha         1 QQI       0.134000
     33 H031       -43.5070   -30.5610     0.8870 hc         1 QQI       0.052700
     34 H041       -43.0840   -28.2490     2.9090 hc         1 QQI       0.060700
     35 H042       -42.0720   -28.7040     1.5310 hc         1 QQI       0.060700
     36 H081       -44.4020   -24.9570    -0.8510 ha         1 QQI       0.094000
     37 H091       -46.6420   -25.9900    -1.1910 ha         1 QQI       0.098000
     38 H221       -52.6760   -27.6540    10.3420 h1         1 QQI       0.083700
     39 H232       -52.0450   -30.0700    12.2250 hc         1 QQI       0.076950
     40 H231       -53.2020   -28.6950    12.5820 hc         1 QQI       0.076950
     41 H241       -53.4070   -30.6910    10.1920 hc         1 QQI       0.076950
     42 H242       -54.5670   -29.3190    10.5520 hc         1 QQI       0.076950
     43 H261       -47.0870   -29.2750     7.7150 ha         1 QQI       0.114000
     44 H271       -45.9800   -29.3670     5.4910 ha         1 QQI       0.149000
     45 H131       -45.4220   -29.5830     3.7190 hn         1 QQI       0.381500
     46 H191       -49.2010   -29.8410     8.8630 hn         1 QQI       0.143000
     47 H211       -50.5420   -29.6770    10.3300 hn         1 QQI       0.310500
     48 H071       -42.4200   -25.1460     0.1100 ho         1 QQI       0.444000
@<TRIPOS>BOND
     1     1    19 ar  
     2     1    22 ar  
     3     1    23 1   
     4     2     3 ar  
     5     2    22 ar  
     6     2    30 1   
     7     3     4 1   
     8     3    20 ar  
     9     4    21 1   
    10     4    28 2   
    11     5     6 1   
    12     5    10 1   
    13     5    21 1   
    14     5    31 1   
    15     6     7 ar  
    16     6    12 ar  
    17     7    15 ar  
    18     7    32 1   
    19     8    23 1   
    20     8    24 1   
    21     8    27 2   
    22     9    10 1   
    23     9    25 1   
    24     9    29 1   
    25    10    11 1   
    26    10    33 1   
    27    11    12 1   
    28    11    34 1   
    29    11    35 1   
    30    12    13 ar  
    31    13    14 ar  
    32    13    26 1   
    33    14    15 ar  
    34    14    36 1   
    35    15    37 1   
    36    16    17 1   
    37    16    18 1   
    38    16    24 1   
    39    16    38 1   
    40    17    18 1   
    41    17    39 1   
    42    17    40 1   
    43    18    41 1   
    44    18    42 1   
    45    19    20 ar  
    46    19    43 1   
    47    20    44 1   
    48    21    45 1   
    49    23    46 1   
    50    24    47 1   
    51    26    48 1   
@<TRIPOS>SUBSTRUCTURE
     1 QQI         1 TEMP              0 ****  ****    0 ROOT
