@<TRIPOS>MOLECULE
QQI
   48    51     1     0     0
SMALL
abcg2


@<TRIPOS>ATOM
      1 C18        -49.0070   -29.2070     6.9740 ca         1 QQI       0.495900
      2 C16        -49.2240   -29.5800     4.7300 ca         1 QQI       0.405900
      3 C15        -47.8760   -29.3480     4.4760 ca         1 QQI      -0.209600
      4 C14        -47.3830   -29.4520     3.0690 c          1 QQI       0.611700
      5 C12        -45.4110   -29.6860     1.6130 c5         1 QQI       0.166000
      6 C11        -45.2890   -28.3830     0.8400 ca         1 QQI      -0.064300
      7 C10        -46.2730   -27.7040     0.1310 ca         1 QQI      -0.110000
      8 C20        -50.8780   -28.9120     8.6020 c          1 QQI       0.666100
      9 C02        -43.6040   -30.9980     3.0110 c          1 QQI       0.720000
     10 C03        -43.9230   -30.1160     1.7880 c5         1 QQI      -0.204700
     11 C04        -43.1180   -28.7940     1.7610 c5         1 QQI      -0.013100
     12 C05        -43.9960   -27.8800     0.9540 ca         1 QQI      -0.091300
     13 C06        -43.6710   -26.6650     0.3580 ca         1 QQI       0.116100
     14 C08        -44.6470   -25.9730    -0.3600 ca         1 QQI      -0.206000
     15 C09        -45.9350   -26.4930    -0.4710 ca         1 QQI      -0.101000
     16 C22        -52.3880   -28.8240    10.5180 cx         1 QQI       0.069700
     17 C23        -52.8670   -29.6860    11.6460 cx         1 QQI      -0.137900
     18 C24        -53.5770   -29.7220    10.3190 cx         1 QQI      -0.137900
     19 C26        -47.6340   -28.9490     6.8300 ca         1 QQI      -0.230000
     20 C27        -47.0720   -29.0270     5.5760 ca         1 QQI      -0.004000
     21 N13        -46.0510   -29.4860     2.9110 ns         1 QQI      -0.482900
     22 N17        -49.7840   -29.5280     5.9390 nb         1 QQI      -0.699000
     23 N19        -49.5530   -29.1720     8.2490 ns         1 QQI      -0.349900
     24 N21        -51.1380   -29.1710     9.9120 ns         1 QQI      -0.513900
     25 O01        -43.0860   -32.1170     2.8000 o          1 QQI      -0.724500
     26 O07        -42.3920   -26.2010     0.5010 oh         1 QQI      -0.540100
     27 O25        -51.7180   -28.4780     7.8250 o          1 QQI      -0.579100
     28 O28        -48.1770   -29.5010     2.1200 o          1 QQI      -0.665100
     29 O29        -43.8760   -30.5130     4.1500 o          1 QQI      -0.724500
     30 H161       -49.8790   -29.8380     3.9060 h4         1 QQI       0.041100
     31 H121       -45.9780   -30.4360     1.0600 h1         1 QQI       0.065700
     32 H101       -47.2740   -28.1040     0.0540 ha         1 QQI       0.134000
     33 H031       -43.6680   -30.6820     0.8920 hc         1 QQI       0.052700
     34 H041       -42.9760   -28.4040     2.7730 hc         1 QQI       0.060700
     35 H042       -42.1270   -28.9320     1.3260 hc         1 QQI       0.060700
     36 H081       -44.3930   -25.0310    -0.8330 ha         1 QQI       0.094000
     37 H091       -46.6770   -25.9450    -1.0370 ha         1 QQI       0.098000
     38 H221       -52.5820   -27.7590    10.5850 h1         1 QQI       0.083700
     39 H232       -52.2540   -30.5380    11.9100 hc         1 QQI       0.076950
     40 H231       -53.3480   -29.1950    12.4800 hc         1 QQI       0.076950
     41 H241       -53.4300   -30.5940     9.6960 hc         1 QQI       0.076950
     42 H242       -54.5500   -29.2560    10.2390 hc         1 QQI       0.076950
     43 H261       -47.0380   -28.6830     7.6940 ha         1 QQI       0.114000
     44 H271       -46.0170   -28.8160     5.4590 ha         1 QQI       0.149000
     45 H131       -45.4240   -29.6540     3.7000 hn         1 QQI       0.381500
     46 H191       -48.8820   -29.1970     9.0030 hn         1 QQI       0.143000
     47 H211       -50.4010   -29.5110    10.5090 hn         1 QQI       0.310500
     48 H071       -42.2900   -25.3690     0.0200 ho         1 QQI       0.444000
@<TRIPOS>BOND
     1     1    19 ar  
     2     1    22 ar  
     3     1    23 1   
     4     2     3 ar  
     5     2    22 ar  
     6     2    30 1   
     7     3     4 1   
     8     3    20 ar  
     9     4    21 1   
    10     4    28 2   
    11     5     6 1   
    12     5    10 1   
    13     5    21 1   
    14     5    31 1   
    15     6     7 ar  
    16     6    12 ar  
    17     7    15 ar  
    18     7    32 1   
    19     8    23 1   
    20     8    24 1   
    21     8    27 2   
    22     9    10 1   
    23     9    25 1   
    24     9    29 1   
    25    10    11 1   
    26    10    33 1   
    27    11    12 1   
    28    11    34 1   
    29    11    35 1   
    30    12    13 ar  
    31    13    14 ar  
    32    13    26 1   
    33    14    15 ar  
    34    14    36 1   
    35    15    37 1   
    36    16    17 1   
    37    16    18 1   
    38    16    24 1   
    39    16    38 1   
    40    17    18 1   
    41    17    39 1   
    42    17    40 1   
    43    18    41 1   
    44    18    42 1   
    45    19    20 ar  
    46    19    43 1   
    47    20    44 1   
    48    21    45 1   
    49    23    46 1   
    50    24    47 1   
    51    26    48 1   
@<TRIPOS>SUBSTRUCTURE
     1 QQI         1 TEMP              0 ****  ****    0 ROOT
