@<TRIPOS>MOLECULE
QQJ
   58    61     1     0     0
SMALL
bcc


@<TRIPOS>ATOM
      1 C06        -16.8120    -7.7900    57.3650 ca         1 QQJ       0.132900
      2 C01        -17.9170    -5.7500    56.8350 ca         1 QQJ      -0.083500
      3 C03        -17.4890    -6.6620    57.7860 ca         1 QQJ      -0.177000
      4 C16        -18.9400    -4.3840    52.5840 cc         1 QQJ       0.481800
      5 C13        -17.6600    -5.9490    55.4780 ca         1 QQJ      -0.120500
      6 C11        -16.9860    -7.1080    55.0920 ca         1 QQJ      -0.083500
      7 C09        -16.5560    -8.0340    56.0300 ca         1 QQJ      -0.177000
      8 C14        -18.1170    -5.0000    54.4580 cd         1 QQJ       0.371800
      9 C15        -18.2130    -3.6220    54.5090 cc         1 QQJ      -0.151600
     10 C18        -18.3980    -3.4790    50.0440 c3         1 QQJ      -0.035000
     11 C19        -18.1680    -0.4760    56.5320 ca         1 QQJ       0.682200
     12 C20        -18.5850    -1.4690    55.6340 ca         1 QQJ      -0.301300
     13 C21        -17.8290    -2.6210    55.4990 ca         1 QQJ       0.061000
     14 C22        -16.6920    -2.7680    56.3020 ca         1 QQJ      -0.278300
     15 C23        -16.4060    -1.7600    57.2000 ca         1 QQJ       0.444200
     16 C24        -21.7250     2.1490    54.0240 ca         1 QQJ      -0.148000
     17 C25        -21.8700     2.3620    55.3890 ca         1 QQJ      -0.173000
     18 C26        -20.9250     1.8790    56.2860 ca         1 QQJ       0.100100
     19 C27        -19.7910     1.2170    55.7890 ca         1 QQJ       0.157600
     20 C28        -20.6030     1.4990    53.5300 ca         1 QQJ       0.039600
     21 C29        -22.1170     2.6640    58.1790 c3         1 QQJ       0.124700
     22 C30        -19.6170     1.0860    54.4190 ca         1 QQJ      -0.144000
     23 C32        -19.9760     0.2430    50.0290 c3         1 QQJ      -0.162400
     24 C33        -18.5920     0.5740    49.4690 c3         1 QQJ      -0.087100
     25 F34        -16.3970    -8.6810    58.2810 f          1 QQJ      -0.147900
     26 N02        -18.7650    -3.2630    53.3110 na         1 QQJ      -0.263900
     27 N04        -18.5630    -5.4480    53.2500 nd         1 QQJ      -0.634000
     28 N07        -17.1070    -0.6360    57.3190 nb         1 QQJ      -0.741000
     29 N12        -20.4760     1.2990    52.1440 ns         1 QQJ      -0.465100
     30 O08        -19.4480    -0.7210    52.1500 o          1 QQJ      -0.641100
     31 S17        -19.6500    -4.3950    50.9880 ss         1 QQJ      -0.286400
     32 H1         -18.4680    -4.8780    57.1630 ha         1 QQJ       0.145000
     33 H2         -17.6910    -6.5010    58.8370 ha         1 QQJ       0.147500
     34 H3         -16.7870    -7.2890    54.0440 ha         1 QQJ       0.145000
     35 H4         -16.0290    -8.9280    55.7240 ha         1 QQJ       0.147500
     36 H5         -18.7360    -3.4760    49.0090 h1         1 QQJ       0.066033
     37 H6         -18.3220    -2.4530    50.3930 h1         1 QQJ       0.066033
     38 H7         -17.4310    -3.9740    50.0980 h1         1 QQJ       0.066033
     39 H8         -19.4930    -1.3450    55.0610 ha         1 QQJ       0.156000
     40 H9         -16.0450    -3.6290    56.2240 ha         1 QQJ       0.155000
     41 H10        -15.5450    -1.8510    57.8530 h4         1 QQJ       0.019100
     42 H11        -22.5000     2.4940    53.3500 ha         1 QQJ       0.133000
     43 H12        -22.7550     2.8740    55.7380 ha         1 QQJ       0.140000
     44 H13        -21.9840     2.6450    59.2580 h1         1 QQJ       0.043367
     45 H14        -22.1760     3.7040    57.8480 h1         1 QQJ       0.043367
     46 H15        -23.0560     2.1610    57.9320 h1         1 QQJ       0.043367
     47 H16        -18.7040     0.6430    54.0530 ha         1 QQJ       0.163000
     48 H17        -20.7060     0.9650    49.6600 hc         1 QQJ       0.065700
     49 H18        -20.2910    -0.7430    49.6830 hc         1 QQJ       0.065700
     50 H19        -18.6140     0.5520    48.3800 hc         1 QQJ       0.045700
     51 H20        -18.2690     1.5690    49.7770 hc         1 QQJ       0.045700
     52 H21        -17.8430    -0.1430    49.8020 hc         1 QQJ       0.045700
     53 H22        -18.9650    -2.3180    52.9860 hn         1 QQJ       0.350700
     54 H24        -18.5850     1.2610    57.4780 hn         1 QQJ       0.465800
     55 H25        -20.9340     1.9760    51.5520 hn         1 QQJ       0.322500
     56 N10        -18.8440     0.7060    56.6770 nu         1 QQJ      -0.759300
     57 O05        -21.0010     1.9950    57.6240 os         1 QQJ      -0.314900
     58 C31        -19.9510     0.2120    51.5370 c          1 QQJ       0.693100
@<TRIPOS>BOND
     1     1     3 ar  
     2     1     7 ar  
     3     1    25 1   
     4     2     3 ar  
     5     2     5 ar  
     6     2    32 1   
     7     3    33 1   
     8     4    26 1   
     9     4    27 2   
    10     4    31 1   
    11     5     6 ar  
    12     5     8 1   
    13     6     7 ar  
    14     6    34 1   
    15     7    35 1   
    16     8     9 2   
    17     8    27 1   
    18     9    13 1   
    19     9    26 1   
    20    10    31 1   
    21    10    36 1   
    22    10    37 1   
    23    10    38 1   
    24    11    12 ar  
    25    11    28 ar  
    26    11    56 1   
    27    12    13 ar  
    28    12    39 1   
    29    13    14 ar  
    30    14    15 ar  
    31    14    40 1   
    32    15    28 ar  
    33    15    41 1   
    34    16    17 ar  
    35    16    20 ar  
    36    16    42 1   
    37    17    18 ar  
    38    17    43 1   
    39    18    19 ar  
    40    18    57 1   
    41    19    22 ar  
    42    19    56 1   
    43    20    22 ar  
    44    20    29 1   
    45    21    44 1   
    46    21    45 1   
    47    21    46 1   
    48    21    57 1   
    49    22    47 1   
    50    23    24 1   
    51    23    48 1   
    52    23    49 1   
    53    23    58 1   
    54    24    50 1   
    55    24    51 1   
    56    24    52 1   
    57    26    53 1   
    58    29    55 1   
    59    29    58 1   
    60    30    58 2   
    61    54    56 1   
@<TRIPOS>SUBSTRUCTURE
     1 QQJ         1 TEMP              0 ****  ****    0 ROOT
