@<TRIPOS>MOLECULE
QQJ
   58    61     1     0     0
SMALL
No Charge or Current Charge


@<TRIPOS>ATOM
      1 C06        -17.0500    -7.7970    57.7400 ca         1 QQJ       0.168000
      2 C01        -17.8090    -5.6660    56.8500 ca         1 QQJ      -0.065500
      3 C03        -17.6170    -6.5330    57.9410 ca         1 QQJ      -0.159000
      4 C16        -18.1390    -4.7110    52.3350 cc         1 QQJ       0.481800
      5 C13        -17.4100    -6.0440    55.5460 ca         1 QQJ      -0.120500
      6 C11        -16.8810    -7.3440    55.3590 ca         1 QQJ      -0.065500
      7 C09        -16.6890    -8.2090    56.4510 ca         1 QQJ      -0.159000
      8 C14        -17.6410    -5.1690    54.3670 cd         1 QQJ       0.306500
      9 C15        -17.8700    -3.8010    54.3000 cc         1 QQJ      -0.137000
     10 C18        -18.9320    -3.2200    50.0500 c3         1 QQJ       0.012900
     11 C19        -18.2950    -0.7910    56.5020 ca         1 QQJ       0.616900
     12 C20        -18.5570    -1.7600    55.5250 ca         1 QQJ      -0.218000
     13 C21        -17.6770    -2.8350    55.3800 ca         1 QQJ       0.061000
     14 C22        -16.5740    -2.8810    56.2500 ca         1 QQJ      -0.195000
     15 C23        -16.4300    -1.8870    57.2340 ca         1 QQJ       0.378900
     16 C24        -21.6620     2.3630    54.0450 ca         1 QQJ      -0.130000
     17 C25        -21.7920     2.5570    55.4340 ca         1 QQJ      -0.155000
     18 C26        -20.9220     1.8920    56.3320 ca         1 QQJ       0.100100
     19 C27        -19.9110     1.0410    55.8160 ca         1 QQJ       0.296000
     20 C28        -20.6560     1.5270    53.5330 ca         1 QQJ      -0.053000
     21 C29        -22.0340     2.8810    58.3140 c3         1 QQJ       0.147900
     22 C30        -19.7630     0.9130    54.4250 ca         1 QQJ      -0.126000
     23 C32        -20.0520     0.4710    49.8740 c3         1 QQJ      -0.162400
     24 C33        -18.6860     0.8240    49.2420 c3         1 QQJ      -0.087100
     25 F34        -16.8700    -8.6290    58.7890 f          1 QQJ      -0.183000
     26 N02        -18.2260    -3.5180    52.9950 na         1 QQJ      -0.263500
     27 N04        -17.8080    -5.7220    53.1070 nd         1 QQJ      -0.634000
     28 N07        -17.2830    -0.8460    57.3630 nb         1 QQJ      -0.741000
     29 N12        -20.5630     1.3230    52.1290 ns         1 QQJ      -0.139000
     30 O08        -19.4110    -0.6750    51.8980 o          1 QQJ      -0.641100
     31 S17        -18.4370    -4.9090    50.6120 ss         1 QQJ      -0.334300
     32 H1         -18.3030    -4.7160    57.0300 ha         1 QQJ       0.127000
     33 H2         -17.9230    -6.2290    58.9390 ha         1 QQJ       0.129500
     34 H3         -16.5960    -7.6840    54.3660 ha         1 QQJ       0.127000
     35 H4         -16.2650    -9.1970    56.2980 ha         1 QQJ       0.129500
     36 H5         -19.1210    -3.2350    48.9690 h1         1 QQJ       0.066033
     37 H6         -19.8500    -2.9110    50.5650 h1         1 QQJ       0.066033
     38 H7         -18.1280    -2.5020    50.2590 h1         1 QQJ       0.066033
     39 H8         -19.4280    -1.6800    54.8860 ha         1 QQJ       0.138000
     40 H9         -15.8330    -3.6710    56.1740 ha         1 QQJ       0.137000
     41 H10        -15.5910    -1.9150    57.9290 h4         1 QQJ       0.019100
     42 H11        -22.3530     2.8620    53.3680 ha         1 QQJ       0.115000
     43 H12        -22.5800     3.2120    55.7930 ha         1 QQJ       0.122000
     44 H13        -21.9410     2.8540    59.4060 h1         1 QQJ       0.043367
     45 H14        -21.9200     3.9230    57.9890 h1         1 QQJ       0.043367
     46 H15        -23.0420     2.5360    58.0500 h1         1 QQJ       0.043367
     47 H16        -18.9300     0.3390    54.0400 ha         1 QQJ       0.145000
     48 H17        -20.7630     1.2680    49.6260 hc         1 QQJ       0.065700
     49 H18        -20.3960    -0.4750    49.4420 hc         1 QQJ       0.065700
     50 H19        -18.7830     0.9300    48.1540 hc         1 QQJ       0.045700
     51 H20        -18.3030     1.7690    49.6460 hc         1 QQJ       0.045700
     52 H21        -17.9480     0.0380    49.4440 hc         1 QQJ       0.045700
     53 H22        -18.4690    -2.6180    52.5930 hn         1 QQJ       0.401000
     54 H24        -18.9520     0.7220    57.6020 hn         1 QQJ       0.521000
     55 H25        -21.0170     2.0330    51.5710 hn         1 QQJ       0.156000
     56 N10        -19.0460     0.3360    56.6670 nu         1 QQJ      -0.952900
     57 O05        -21.0330     2.0430    57.7080 os         1 QQJ      -0.338100
     58 C31        -19.9520     0.3090    51.3960 c          1 QQJ       0.626100
@<TRIPOS>BOND
     1     1     3 ar  
     2     1     7 ar  
     3     1    25 1   
     4     2     3 ar  
     5     2     5 ar  
     6     2    32 1   
     7     3    33 1   
     8     4    26 1   
     9     4    27 2   
    10     4    31 1   
    11     5     6 ar  
    12     5     8 1   
    13     6     7 ar  
    14     6    34 1   
    15     7    35 1   
    16     8     9 2   
    17     8    27 1   
    18     9    13 1   
    19     9    26 1   
    20    10    31 1   
    21    10    36 1   
    22    10    37 1   
    23    10    38 1   
    24    11    12 ar  
    25    11    28 ar  
    26    11    56 1   
    27    12    13 ar  
    28    12    39 1   
    29    13    14 ar  
    30    14    15 ar  
    31    14    40 1   
    32    15    28 ar  
    33    15    41 1   
    34    16    17 ar  
    35    16    20 ar  
    36    16    42 1   
    37    17    18 ar  
    38    17    43 1   
    39    18    19 ar  
    40    18    57 1   
    41    19    22 ar  
    42    19    56 1   
    43    20    22 ar  
    44    20    29 1   
    45    21    44 1   
    46    21    45 1   
    47    21    46 1   
    48    21    57 1   
    49    22    47 1   
    50    23    24 1   
    51    23    48 1   
    52    23    49 1   
    53    23    58 1   
    54    24    50 1   
    55    24    51 1   
    56    24    52 1   
    57    26    53 1   
    58    29    55 1   
    59    29    58 1   
    60    30    58 2   
    61    54    56 1   
@<TRIPOS>SUBSTRUCTURE
     1 QQJ         1 TEMP              0 ****  ****    0 ROOT
