@<TRIPOS>MOLECULE
QQK
   67    70     1     0     0
SMALL
No Charge or Current Charge


@<TRIPOS>ATOM
      1 C4          12.6870   -13.4800    13.6240 ca         1 QQK       0.135400
      2 C5          11.7740   -12.6050    14.1320 ca         1 QQK      -0.024900
      3 C7          13.7190   -11.9790    14.6440 cc         1 QQK       0.778500
      4 C10         16.1140   -11.2830    14.8830 c3         1 QQK       0.302800
      5 C13         16.9980   -10.6500    11.1960 ca         1 QQK      -0.101000
      6 C15         16.5260    -8.5070    12.2400 ca         1 QQK       0.120000
      7 C21          8.0970   -11.9660    14.3580 c3         1 QQK       0.142900
      8 C26          7.2690   -17.0090    10.1430 c6         1 QQK       0.145600
      9 C28          7.4920   -14.5850     9.9260 c6         1 QQK       0.173000
     10 C16         16.2760    -9.1520    13.4620 ca         1 QQK      -0.093000
     11 C14         16.8880    -9.2520    11.1070 ca         1 QQK      -0.099000
     12 C12         16.7480   -11.2980    12.4190 ca         1 QQK      -0.086000
     13 C11         16.3900   -10.5570    13.5650 ca         1 QQK      -0.094300
     14 C18         16.9270   -10.7200    16.0640 c3         1 QQK      -0.106100
     15 N9          14.6880   -11.2110    15.1940 nu         1 QQK      -0.895400
     16 O6          12.4000   -11.6080    14.8120 os         1 QQK      -0.289700
     17 N8          13.9680   -13.0910    13.9500 nd         1 QQK      -0.656100
     18 C3          12.2880   -14.5990    12.8850 ca         1 QQK      -0.081000
     19 C19         10.3930   -12.7760    13.9570 ca         1 QQK       0.178100
     20 O20          9.5220   -11.8650    14.5220 os         1 QQK      -0.326100
     21 C1           9.9630   -13.9010    13.2110 ca         1 QQK      -0.192000
     22 C2          10.9070   -14.8090    12.6490 ca         1 QQK      -0.103600
     23 N24          9.3670   -15.9580    10.9970 n          1 QQK      -0.404800
     24 C29          9.0170   -14.6980    10.2620 c6         1 QQK       0.075000
     25 C25          8.7990   -17.1890    10.3540 c6         1 QQK       0.070700
     26 C34          9.4700   -17.5500     8.9840 c3         1 QQK      -0.084400
     27 C35         10.9890   -17.8130     9.0190 c3         1 QQK      -0.089100
     28 O27          7.0100   -15.8240     9.3520 os         1 QQK      -0.454000
     29 C30          7.2640   -13.4990     8.8360 c3         1 QQK      -0.086100
     30 C31          6.6440   -14.2350    11.1990 c3         1 QQK      -0.106400
     31 C32          5.1100   -14.2670    11.0280 c3         1 QQK       0.167600
     32 O33          4.4860   -13.9450    12.2760 oh         1 QQK      -0.672000
     33 H1          16.4110   -12.3360    14.7660 h1         1 QQK       0.081700
     34 H2          17.2740   -11.2310    10.3190 ha         1 QQK       0.120000
     35 H3           7.5940   -11.1480    14.8890 h1         1 QQK       0.048033
     36 H4           7.8220   -11.9000    13.2980 h1         1 QQK       0.048033
     37 H5           7.7220   -12.9150    14.7620 h1         1 QQK       0.048033
     38 H7           6.8560   -17.8830     9.6190 h1         1 QQK       0.053700
     39 H8          15.9890    -8.5570    14.3240 ha         1 QQK       0.125000
     40 H9          17.0800    -8.7480    10.1630 ha         1 QQK       0.129000
     41 H10         16.8300   -12.3820    12.4730 ha         1 QQK       0.120000
     42 H11         16.7550   -11.3190    16.9660 hc         1 QQK       0.049700
     43 H12         17.9990   -10.7530    15.8350 hc         1 QQK       0.049700
     44 H13         16.6540    -9.6820    16.2850 hc         1 QQK       0.049700
     45 H14         14.3230   -10.3540    15.5960 hn         1 QQK       0.513000
     46 H15         13.0330   -15.2880    12.4930 ha         1 QQK       0.141000
     47 H16          8.9040   -14.0970    13.0800 ha         1 QQK       0.130000
     48 H17          9.5880   -14.6870     9.3230 h1         1 QQK       0.064200
     49 H18          9.3320   -13.8020    10.8080 h1         1 QQK       0.064200
     50 H19          8.9380   -18.0450    11.0300 h1         1 QQK       0.088700
     51 H20          9.2800   -16.7610     8.2470 hc         1 QQK       0.045700
     52 H21          8.9900   -18.4510     8.5820 hc         1 QQK       0.045700
     53 H22         11.3440   -18.1170     8.0280 hc         1 QQK       0.037033
     54 H23         11.5370   -16.9080     9.3100 hc         1 QQK       0.037033
     55 H24         11.2290   -18.6140     9.7280 hc         1 QQK       0.037033
     56 H25          7.5250   -12.5010     9.2060 hc         1 QQK       0.047367
     57 H26          7.8840   -13.6930     7.9520 hc         1 QQK       0.047367
     58 H27          6.2220   -13.4700     8.4970 hc         1 QQK       0.047367
     59 H28          6.9090   -14.9070    12.0230 hc         1 QQK       0.057700
     60 H29          6.9230   -13.2320    11.5440 hc         1 QQK       0.057700
     61 H30          4.8060   -13.5440    10.2600 h1         1 QQK       0.025200
     62 H31          4.7970   -15.2650    10.6960 h1         1 QQK       0.025200
     63 H32          3.5150   -13.9840    12.1290 ho         1 QQK       0.444000
     64 C22         10.4770   -16.0410    11.8790 c          1 QQK       0.619700
     65 Cl1         16.3810    -6.7570    12.1270 cl         1 QQK      -0.208000
     66 O23         11.0260   -17.1140    12.1000 o          1 QQK      -0.589100
     67 H6           6.7560   -16.9370    11.1120 h1         1 QQK       0.053700
@<TRIPOS>BOND
     1     1     2 ar  
     2     1    17 1   
     3     1    18 ar  
     4     2    16 1   
     5     2    19 ar  
     6     3    15 1   
     7     3    16 1   
     8     3    17 2   
     9     4    13 1   
    10     4    14 1   
    11     4    15 1   
    12     4    33 1   
    13     5    11 ar  
    14     5    12 ar  
    15     5    34 1   
    16     6    10 ar  
    17     6    11 ar  
    18     6    65 1   
    19     7    20 1   
    20     7    35 1   
    21     7    36 1   
    22     7    37 1   
    23     8    25 1   
    24     8    28 1   
    25     8    38 1   
    26     8    67 1   
    27     9    24 1   
    28     9    28 1   
    29     9    29 1   
    30     9    30 1   
    31    10    13 ar  
    32    10    39 1   
    33    11    40 1   
    34    12    13 ar  
    35    12    41 1   
    36    14    42 1   
    37    14    43 1   
    38    14    44 1   
    39    15    45 1   
    40    18    22 ar  
    41    18    46 1   
    42    19    20 1   
    43    19    21 ar  
    44    21    22 ar  
    45    21    47 1   
    46    22    64 1   
    47    23    24 1   
    48    23    25 1   
    49    23    64 1   
    50    24    48 1   
    51    24    49 1   
    52    25    26 1   
    53    25    50 1   
    54    26    27 1   
    55    26    51 1   
    56    26    52 1   
    57    27    53 1   
    58    27    54 1   
    59    27    55 1   
    60    29    56 1   
    61    29    57 1   
    62    29    58 1   
    63    30    31 1   
    64    30    59 1   
    65    30    60 1   
    66    31    32 1   
    67    31    61 1   
    68    31    62 1   
    69    32    63 1   
    70    64    66 2   
@<TRIPOS>SUBSTRUCTURE
     1 QQK         1 TEMP              0 ****  ****    0 ROOT
