@<TRIPOS>MOLECULE
QQK
   67    70     1     0     0
SMALL
abcg2


@<TRIPOS>ATOM
      1 C4          12.3990   -13.5760    13.6190 ca         1 QQK       0.135400
      2 C5          11.4900   -12.8610    14.3850 ca         1 QQK      -0.024900
      3 C7          13.4540   -12.0380    14.6060 cc         1 QQK       0.778500
      4 C10         15.7490   -11.2670    14.6710 c3         1 QQK       0.302800
      5 C13         17.0220   -11.0650    11.0990 ca         1 QQK      -0.101000
      6 C15         15.5170    -9.2540    11.4670 ca         1 QQK       0.120000
      7 C21          7.9790   -12.6820    15.2970 c3         1 QQK       0.142900
      8 C26          7.5090   -16.5770     9.8060 c6         1 QQK       0.145600
      9 C28          7.9890   -14.2440     9.9310 c6         1 QQK       0.173000
     10 C16         15.2900    -9.6780    12.7650 ca         1 QQK      -0.093000
     11 C14         16.3790    -9.9330    10.6200 ca         1 QQK      -0.099000
     12 C12         16.8010   -11.5060    12.3960 ca         1 QQK      -0.086000
     13 C11         15.9380   -10.8160    13.2380 ca         1 QQK      -0.094300
     14 C18         16.5990   -10.4290    15.6190 c3         1 QQK      -0.106100
     15 N9          14.3660   -11.2000    15.0960 nu         1 QQK      -0.895400
     16 O6          12.1780   -11.8670    15.0180 os         1 QQK      -0.289700
     17 N8          13.6510   -13.0200    13.7820 nd         1 QQK      -0.656100
     18 C3          11.9700   -14.6550    12.8530 ca         1 QQK      -0.081000
     19 C19         10.1380   -13.1480    14.4590 ca         1 QQK       0.178100
     20 O20          9.3630   -12.3830    15.2380 os         1 QQK      -0.326100
     21 C1           9.7140   -14.2330    13.6920 ca         1 QQK      -0.192000
     22 C2          10.6160   -14.9550    12.9020 ca         1 QQK      -0.103600
     23 N24          9.5080   -15.8910    10.9560 n          1 QQK      -0.404800
     24 C29          9.4320   -14.5890    10.3220 c6         1 QQK       0.075000
     25 C25          8.9380   -16.9720    10.1560 c6         1 QQK       0.070700
     26 C34          9.7830   -17.2910     8.9200 c3         1 QQK      -0.084400
     27 C35         11.2480   -17.5520     9.2320 c3         1 QQK      -0.089100
     28 O27          7.4410   -15.3180     9.1740 os         1 QQK      -0.454000
     29 C30          8.0190   -13.0440     8.9960 c3         1 QQK      -0.086100
     30 C31          7.1640   -13.9550    11.1920 c3         1 QQK      -0.106400
     31 C32          5.6760   -13.7690    10.9610 c3         1 QQK       0.167600
     32 O33          5.0910   -13.4390    12.2050 oh         1 QQK      -0.672000
     33 H1          16.0730   -12.3090    14.7440 h1         1 QQK       0.081700
     34 H2          17.6950   -11.6090    10.4490 ha         1 QQK       0.120000
     35 H3           7.5380   -11.9590    15.9780 h1         1 QQK       0.048033
     36 H4           7.4990   -12.5840    14.3190 h1         1 QQK       0.048033
     37 H5           7.7980   -13.6880    15.6830 h1         1 QQK       0.048033
     38 H7           7.0850   -17.3010     9.1070 h1         1 QQK       0.053700
     39 H8          14.6090    -9.1290    13.4030 ha         1 QQK       0.125000
     40 H9          16.5440    -9.5900     9.6070 ha         1 QQK       0.129000
     41 H10         17.3000   -12.3980    12.7540 ha         1 QQK       0.120000
     42 H11         16.4900   -10.7780    16.6460 hc         1 QQK       0.049700
     43 H12         17.6490   -10.5040    15.3440 hc         1 QQK       0.049700
     44 H13         16.3130    -9.3770    15.5770 hc         1 QQK       0.049700
     45 H14         14.0630   -10.4350    15.6800 hn         1 QQK       0.513000
     46 H15         12.6580   -15.2200    12.2390 ha         1 QQK       0.141000
     47 H16          8.6750   -14.5280    13.7000 ha         1 QQK       0.130000
     48 H17         10.0590   -14.5870     9.4240 h1         1 QQK       0.064200
     49 H18          9.8320   -13.8230    10.9820 h1         1 QQK       0.064200
     50 H19          8.8940   -17.8610    10.7840 h1         1 QQK       0.088700
     51 H20          9.6950   -16.4960     8.1760 hc         1 QQK       0.045700
     52 H21          9.3430   -18.1800     8.4590 hc         1 QQK       0.045700
     53 H22         11.7820   -17.8670     8.3360 hc         1 QQK       0.037033
     54 H23         11.7480   -16.6580     9.6070 hc         1 QQK       0.037033
     55 H24         11.3650   -18.3350     9.9830 hc         1 QQK       0.037033
     56 H25          8.4510   -12.1800     9.5000 hc         1 QQK       0.047367
     57 H26          8.6240   -13.2590     8.1140 hc         1 QQK       0.047367
     58 H27          7.0200   -12.7680     8.6580 hc         1 QQK       0.047367
     59 H28          7.2990   -14.7540    11.9260 hc         1 QQK       0.057700
     60 H29          7.5710   -13.0500    11.6540 hc         1 QQK       0.057700
     61 H30          5.4990   -12.9790    10.2210 h1         1 QQK       0.025200
     62 H31          5.2430   -14.6880    10.5520 h1         1 QQK       0.025200
     63 H32          4.1420   -13.3590    12.0740 ho         1 QQK       0.444000
     64 C22         10.1030   -16.1400    12.1390 c          1 QQK       0.619700
     65 CL1         14.6990    -7.8370    10.8870 cl         1 QQK      -0.208000
     66 O23         10.2320   -17.2630    12.6080 o          1 QQK      -0.589100
     67 H6           6.8930   -16.6030    10.7130 h1         1 QQK       0.053700
@<TRIPOS>BOND
     1     1     2 ar  
     2     1    17 1   
     3     1    18 ar  
     4     2    16 1   
     5     2    19 ar  
     6     3    15 1   
     7     3    16 1   
     8     3    17 2   
     9     4    13 1   
    10     4    14 1   
    11     4    15 1   
    12     4    33 1   
    13     5    11 ar  
    14     5    12 ar  
    15     5    34 1   
    16     6    10 ar  
    17     6    11 ar  
    18     6    65 1   
    19     7    20 1   
    20     7    35 1   
    21     7    36 1   
    22     7    37 1   
    23     8    25 1   
    24     8    28 1   
    25     8    38 1   
    26     8    67 1   
    27     9    24 1   
    28     9    28 1   
    29     9    29 1   
    30     9    30 1   
    31    10    13 ar  
    32    10    39 1   
    33    11    40 1   
    34    12    13 ar  
    35    12    41 1   
    36    14    42 1   
    37    14    43 1   
    38    14    44 1   
    39    15    45 1   
    40    18    22 ar  
    41    18    46 1   
    42    19    20 1   
    43    19    21 ar  
    44    21    22 ar  
    45    21    47 1   
    46    22    64 1   
    47    23    24 1   
    48    23    25 1   
    49    23    64 1   
    50    24    48 1   
    51    24    49 1   
    52    25    26 1   
    53    25    50 1   
    54    26    27 1   
    55    26    51 1   
    56    26    52 1   
    57    27    53 1   
    58    27    54 1   
    59    27    55 1   
    60    29    56 1   
    61    29    57 1   
    62    29    58 1   
    63    30    31 1   
    64    30    59 1   
    65    30    60 1   
    66    31    32 1   
    67    31    61 1   
    68    31    62 1   
    69    32    63 1   
    70    64    66 2   
@<TRIPOS>SUBSTRUCTURE
     1 QQK         1 TEMP              0 ****  ****    0 ROOT
