@<TRIPOS>MOLECULE
QQL
   68    70     1     0     0
SMALL
No Charge or Current Charge


@<TRIPOS>ATOM
      1 C13          7.7290   -16.2920    27.0530 c5         1 QQL      -0.153700
      2 C15          7.6340   -18.5790    27.7880 c5         1 QQL       0.097000
      3 C17          7.0020   -16.3660    28.4030 c          1 QQL       0.560000
      4 C20          7.9930   -13.8550    22.4580 c3         1 QQL      -0.027400
      5 C26         12.4620   -11.9610    26.9690 cc         1 QQL      -0.163200
      6 C28         12.8880   -10.1270    28.7250 ca         1 QQL       0.189100
      7 O01         12.0410   -12.9460    23.4470 o          1 QQL      -0.631100
      8 N03         11.9520   -14.2670    25.3010 ns         1 QQL      -0.485900
      9 C04         11.7670   -15.5620    24.6010 c3         1 QQL       0.036700
     10 C05         12.4140   -16.7240    25.4000 c3         1 QQL      -0.073400
     11 C06         13.9210   -16.5480    25.7450 c3         1 QQL      -0.060700
     12 C07         14.8070   -16.3800    24.4880 c3         1 QQL      -0.090600
     13 C08         14.4260   -17.7200    26.6180 c3         1 QQL      -0.090600
     14 N10          9.3530   -14.9910    24.8690 ns         1 QQL      -0.513900
     15 C11          7.8970   -15.0840    24.7350 c3         1 QQL       0.110700
     16 C12          7.2250   -15.1470    26.1290 c3         1 QQL      -0.074400
     17 C14          7.5440   -17.7290    26.4910 c5         1 QQL      -0.090400
     18 N16          6.9610   -17.6920    28.7350 ns         1 QQL      -0.505900
     19 O18          6.3630   -15.5090    28.9930 o          1 QQL      -0.565000
     20 C19          7.3570   -13.9230    23.8700 c3         1 QQL      -0.096400
     21 N21          7.3960   -12.7310    21.6140 no         1 QQL       0.561000
     22 O22          7.9050   -11.6080    21.7110 o          1 QQL      -0.398500
     23 O23          6.4130   -12.9990    20.9150 o          1 QQL      -0.398500
     24 O24          9.9170   -16.7770    23.5740 o          1 QQL      -0.606100
     25 C25         12.3720   -11.9060    25.5750 cd         1 QQL      -0.170300
     26 C27         12.7140   -10.6270    27.4260 ca         1 QQL      -0.149800
     27 C30         12.9890   -10.5470    31.1510 c3         1 QQL       0.147900
     28 C31         13.1270    -8.7380    28.8670 ca         1 QQL      -0.240000
     29 C32         13.1840    -7.9040    27.7250 ca         1 QQL      -0.048000
     30 C33         13.0030    -8.4480    26.4350 ca         1 QQL      -0.157000
     31 C34         12.7680    -9.8240    26.3230 ca         1 QQL       0.001800
     32 N35         12.5650   -10.5590    25.1660 na         1 QQL      -0.182700
     33 H1           8.7930   -16.1490    27.2740 hc         1 QQL       0.069700
     34 H2           8.6780   -18.7580    28.0800 h1         1 QQL       0.051700
     35 H3           7.1320   -19.5500    27.6790 h1         1 QQL       0.051700
     36 H4           7.8220   -14.7830    21.9000 h1         1 QQL       0.100200
     37 H5           9.0700   -13.6550    22.5120 h1         1 QQL       0.100200
     38 H6          12.3610   -12.8420    27.5990 ha         1 QQL       0.208000
     39 H7          12.0630   -14.2690    26.3060 hn         1 QQL       0.324500
     40 H8          12.2580   -15.4980    23.6220 h1         1 QQL       0.093700
     41 H9          12.2880   -17.6540    24.8310 hc         1 QQL       0.061700
     42 H10         11.8500   -16.8580    26.3320 hc         1 QQL       0.061700
     43 H11         14.0320   -15.6380    26.3470 hc         1 QQL       0.048700
     44 H12         14.5430   -15.4690    23.9370 hc         1 QQL       0.036367
     45 H13         15.8640   -16.2990    24.7680 hc         1 QQL       0.036367
     46 H14         14.6960   -17.2370    23.8130 hc         1 QQL       0.036367
     47 H15         13.8330   -17.8040    27.5360 hc         1 QQL       0.036367
     48 H16         14.3550   -18.6710    26.0750 hc         1 QQL       0.036367
     49 H17         15.4730   -17.5670    26.9060 hc         1 QQL       0.036367
     50 H18          9.7390   -14.2490    25.4390 hn         1 QQL       0.339500
     51 H19          7.6520   -16.0200    24.2150 h1         1 QQL       0.077700
     52 H20          7.3750   -14.1840    26.6340 hc         1 QQL       0.068200
     53 H21          6.1410   -15.2470    25.9860 hc         1 QQL       0.068200
     54 H22          6.5620   -17.8480    26.0170 hc         1 QQL       0.059700
     55 H23          8.3040   -18.0070    25.7520 hc         1 QQL       0.059700
     56 H24          6.4440   -17.9780    29.5590 hn         1 QQL       0.331500
     57 H25          7.5310   -12.9710    24.3890 hc         1 QQL       0.074700
     58 H26          6.2700   -14.0330    23.7670 hc         1 QQL       0.074700
     59 H27         12.8990   -11.3920    31.8450 h1         1 QQL       0.044367
     60 H28         13.9790   -10.0960    31.2920 h1         1 QQL       0.044367
     61 H29         12.2230    -9.8070    31.4150 h1         1 QQL       0.044367
     62 H30         13.2700    -8.2900    29.8460 ha         1 QQL       0.119000
     63 H31         13.3680    -6.8380    27.8400 ha         1 QQL       0.115000
     64 H32         13.0460    -7.8130    25.5530 ha         1 QQL       0.131000
     65 H33         12.5560   -10.2080    24.2130 hn         1 QQL       0.382000
     66 C09         10.2680   -15.8530    24.2950 c          1 QQL       0.564100
     67 C02         12.1160   -13.0580    24.6630 c          1 QQL       0.626300
     68 O29         12.8200   -10.9960    29.7950 os         1 QQL      -0.347100
@<TRIPOS>BOND
     1     1     3 1   
     2     1    16 1   
     3     1    17 1   
     4     1    33 1   
     5     2    17 1   
     6     2    18 1   
     7     2    34 1   
     8     2    35 1   
     9     3    18 1   
    10     3    19 2   
    11     4    20 1   
    12     4    21 1   
    13     4    36 1   
    14     4    37 1   
    15     5    25 2   
    16     5    26 1   
    17     5    38 1   
    18     6    26 ar  
    19     6    28 ar  
    20     6    68 1   
    21     7    67 2   
    22     8     9 1   
    23     8    39 1   
    24     8    67 1   
    25     9    10 1   
    26     9    40 1   
    27     9    66 1   
    28    10    11 1   
    29    10    41 1   
    30    10    42 1   
    31    11    12 1   
    32    11    13 1   
    33    11    43 1   
    34    12    44 1   
    35    12    45 1   
    36    12    46 1   
    37    13    47 1   
    38    13    48 1   
    39    13    49 1   
    40    14    15 1   
    41    14    50 1   
    42    14    66 1   
    43    15    16 1   
    44    15    20 1   
    45    15    51 1   
    46    16    52 1   
    47    16    53 1   
    48    17    54 1   
    49    17    55 1   
    50    18    56 1   
    51    20    57 1   
    52    20    58 1   
    53    21    22 1   
    54    21    23 1   
    55    24    66 2   
    56    25    32 1   
    57    25    67 1   
    58    26    31 ar  
    59    27    59 1   
    60    27    60 1   
    61    27    61 1   
    62    27    68 1   
    63    28    29 ar  
    64    28    62 1   
    65    29    30 ar  
    66    29    63 1   
    67    30    31 ar  
    68    30    64 1   
    69    31    32 1   
    70    32    65 1   
@<TRIPOS>SUBSTRUCTURE
     1 QQL         1 TEMP              0 ****  ****    0 ROOT
