@<TRIPOS>MOLECULE
QQL
   68    70     1     0     0
SMALL
abcg2


@<TRIPOS>ATOM
      1 C13          8.6400   -13.3870    26.4110 c5         1 QQL      -0.153700
      2 C15          8.6120   -13.5220    28.8240 c5         1 QQL       0.097000
      3 C17          8.5570   -11.9920    27.0270 c          1 QQL       0.560000
      4 C20          7.5530   -16.2830    22.4100 c3         1 QQL      -0.027400
      5 C26         12.3060   -13.2840    27.9880 cc         1 QQL      -0.163200
      6 C28         12.0520   -12.0630    30.2740 ca         1 QQL       0.189100
      7 O01         11.8430   -12.8150    24.3760 o          1 QQL      -0.631100
      8 N03         12.2810   -14.8020    25.3930 ns         1 QQL      -0.485900
      9 C04         11.9150   -15.6360    24.2520 c3         1 QQL       0.036700
     10 C05         12.7650   -16.8960    24.1970 c3         1 QQL      -0.073400
     11 C06         14.2720   -16.6450    24.0590 c3         1 QQL      -0.060700
     12 C07         14.6210   -15.8660    22.7900 c3         1 QQL      -0.090600
     13 C08         15.0230   -17.9770    24.1000 c3         1 QQL      -0.090600
     14 N10          9.6130   -14.9060    24.0520 ns         1 QQL      -0.513900
     15 C11          8.1870   -14.8370    24.3610 c3         1 QQL       0.110700
     16 C12          7.8780   -13.5320    25.1040 c3         1 QQL      -0.074400
     17 C14          8.2300   -14.3130    27.5630 c5         1 QQL      -0.090400
     18 N16          8.5200   -12.1400    28.3650 ns         1 QQL      -0.505900
     19 O18          8.5580   -10.9250    26.4190 o          1 QQL      -0.565000
     20 C19          7.3330   -14.9530    23.0930 c3         1 QQL      -0.096400
     21 N21          6.7720   -16.4370    21.1290 no         1 QQL       0.561000
     22 O22          7.0180   -17.4250    20.4530 o          1 QQL      -0.398500
     23 O23          5.9370   -15.5990    20.8340 o          1 QQL      -0.398500
     24 O24          9.9850   -17.0230    24.7880 o          1 QQL      -0.606100
     25 C25         12.1750   -12.7950    26.7050 cd         1 QQL      -0.170300
     26 C27         12.0980   -12.1850    28.8690 ca         1 QQL      -0.149800
     27 C30         12.2210   -13.1360    32.4020 c3         1 QQL       0.147900
     28 C31         11.7560   -10.8280    30.8260 ca         1 QQL      -0.240000
     29 C32         11.5090    -9.7120    29.9950 ca         1 QQL      -0.048000
     30 C33         11.5480    -9.7890    28.6180 ca         1 QQL      -0.157000
     31 C34         11.8430   -11.0420    28.0680 ca         1 QQL       0.001800
     32 N35         11.9140   -11.4420    26.7640 na         1 QQL      -0.182700
     33 H1           9.7040   -13.5310    26.2120 hc         1 QQL       0.069700
     34 H2           9.6300   -13.7480    29.1510 h1         1 QQL       0.051700
     35 H3           7.9330   -13.7000    29.6570 h1         1 QQL       0.051700
     36 H4           7.2350   -17.1270    23.0230 h1         1 QQL       0.100200
     37 H5           8.5890   -16.4450    22.1190 h1         1 QQL       0.100200
     38 H6          12.4970   -14.3050    28.2710 ha         1 QQL       0.208000
     39 H7          12.3980   -15.2720    26.2780 hn         1 QQL       0.324500
     40 H8          12.0650   -15.0350    23.3580 h1         1 QQL       0.093700
     41 H9          12.4200   -17.4970    23.3500 hc         1 QQL       0.061700
     42 H10         12.5740   -17.4870    25.0950 hc         1 QQL       0.061700
     43 H11         14.5950   -16.0520    24.9210 hc         1 QQL       0.048700
     44 H12         14.1760   -14.8690    22.7850 hc         1 QQL       0.036367
     45 H13         15.7030   -15.7450    22.7000 hc         1 QQL       0.036367
     46 H14         14.2670   -16.3980    21.9020 hc         1 QQL       0.036367
     47 H15         14.7980   -18.5310    25.0140 hc         1 QQL       0.036367
     48 H16         14.7410   -18.6050    23.2490 hc         1 QQL       0.036367
     49 H17         16.1020   -17.8190    24.0560 hc         1 QQL       0.036367
     50 H18         10.0670   -14.0540    23.7470 hn         1 QQL       0.339500
     51 H19          7.9750   -15.6860    25.0110 h1         1 QQL       0.077700
     52 H20          8.1220   -12.6880    24.4540 hc         1 QQL       0.068200
     53 H21          6.8030   -13.4900    25.2960 hc         1 QQL       0.068200
     54 H22          7.1500   -14.4750    27.5370 hc         1 QQL       0.059700
     55 H23          8.7220   -15.2840    27.5260 hc         1 QQL       0.059700
     56 H24          8.6400   -11.3500    28.9820 hn         1 QQL       0.331500
     57 H25          7.5850   -14.1360    22.4140 hc         1 QQL       0.074700
     58 H26          6.2840   -14.8450    23.3690 hc         1 QQL       0.074700
     59 H27         12.4330   -14.1410    32.7560 h1         1 QQL       0.044367
     60 H28         12.9620   -12.4400    32.8010 h1         1 QQL       0.044367
     61 H29         11.2230   -12.8320    32.7270 h1         1 QQL       0.044367
     62 H30         11.7060   -10.7000    31.8970 ha         1 QQL       0.119000
     63 H31         11.2790    -8.7650    30.4670 ha         1 QQL       0.115000
     64 H32         11.3480    -8.9310    27.9920 ha         1 QQL       0.131000
     65 H33         11.6940   -10.8840    25.9540 hn         1 QQL       0.382000
     66 C09         10.4070   -15.9460    24.3750 c          1 QQL       0.564100
     67 C02         12.1080   -13.4610    25.3990 c          1 QQL       0.626300
     68 O29         12.2940   -13.1990    30.9770 os         1 QQL      -0.347100
@<TRIPOS>BOND
     1     1     3 1   
     2     1    16 1   
     3     1    17 1   
     4     1    33 1   
     5     2    17 1   
     6     2    18 1   
     7     2    34 1   
     8     2    35 1   
     9     3    18 1   
    10     3    19 2   
    11     4    20 1   
    12     4    21 1   
    13     4    36 1   
    14     4    37 1   
    15     5    25 2   
    16     5    26 1   
    17     5    38 1   
    18     6    26 ar  
    19     6    28 ar  
    20     6    68 1   
    21     7    67 2   
    22     8     9 1   
    23     8    39 1   
    24     8    67 1   
    25     9    10 1   
    26     9    40 1   
    27     9    66 1   
    28    10    11 1   
    29    10    41 1   
    30    10    42 1   
    31    11    12 1   
    32    11    13 1   
    33    11    43 1   
    34    12    44 1   
    35    12    45 1   
    36    12    46 1   
    37    13    47 1   
    38    13    48 1   
    39    13    49 1   
    40    14    15 1   
    41    14    50 1   
    42    14    66 1   
    43    15    16 1   
    44    15    20 1   
    45    15    51 1   
    46    16    52 1   
    47    16    53 1   
    48    17    54 1   
    49    17    55 1   
    50    18    56 1   
    51    20    57 1   
    52    20    58 1   
    53    21    22 1   
    54    21    23 1   
    55    24    66 2   
    56    25    32 1   
    57    25    67 1   
    58    26    31 ar  
    59    27    59 1   
    60    27    60 1   
    61    27    61 1   
    62    27    68 1   
    63    28    29 ar  
    64    28    62 1   
    65    29    30 ar  
    66    29    63 1   
    67    30    31 ar  
    68    30    64 1   
    69    31    32 1   
    70    32    65 1   
@<TRIPOS>SUBSTRUCTURE
     1 QQL         1 TEMP              0 ****  ****    0 ROOT
