@<TRIPOS>MOLECULE
QQM
   64    67     1     0     0
SMALL
No Charge or Current Charge


@<TRIPOS>ATOM
      1 C10        -36.7920    10.0800    -6.5950 ca         1 QQM      -0.159500
      2 C14        -36.6340     9.0710    -4.3740 ca         1 QQM      -0.117500
      3 C01        -35.4900     9.8540    -4.1140 ca         1 QQM      -0.067500
      4 C04        -34.9850    10.7220    -5.0980 ca         1 QQM      -0.159500
      5 C07        -35.6330    10.8270    -6.3370 ca         1 QQM       0.167000
      6 C12        -37.2990     9.2120    -5.6120 ca         1 QQM      -0.067500
      7 C15        -37.1860     8.2070    -3.3290 cc         1 QQM       0.317500
      8 C16        -37.5950     6.9070    -3.5420 cd         1 QQM      -0.155000
      9 C17        -37.9250     7.5850    -1.4330 cd         1 QQM       0.413800
     10 C18        -38.2880     7.5610     0.0270 c3         1 QQM      -0.097700
     11 C19        -37.2590     6.7820     0.8830 c3         1 QQM      -0.078400
     12 C20        -37.6710     6.6040     2.3590 c3         1 QQM       0.165600
     13 C21        -37.9420     3.8580    -5.7160 ca         1 QQM       0.616900
     14 C22        -38.1760     4.8080    -4.7180 ca         1 QQM      -0.224000
     15 C23        -37.4220     5.9850    -4.6850 ca         1 QQM       0.072000
     16 C24        -36.4900     6.1600    -5.7250 ca         1 QQM      -0.198000
     17 C25        -36.3700     5.1730    -6.7200 ca         1 QQM       0.378900
     18 C26        -40.9460     0.6330    -2.9110 ca         1 QQM      -0.134000
     19 C27        -41.1260     0.3550    -4.2800 ca         1 QQM      -0.153000
     20 C28        -40.3340     1.0100    -5.2530 ca         1 QQM       0.093100
     21 C29        -39.3370     1.9280    -4.8330 ca         1 QQM       0.303000
     22 C30        -39.9560     1.5380    -2.4940 ca         1 QQM      -0.051000
     23 C31        -41.5020    -0.1180    -7.1250 c3         1 QQM       0.148900
     24 C32        -39.1220     2.1260    -3.4580 ca         1 QQM      -0.130000
     25 C34        -39.3010     2.9300     1.0400 c3         1 QQM      -0.160400
     26 C35        -37.8810     2.7040     1.6090 c3         1 QQM      -0.086100
     27 F36        -35.1490    11.6630    -7.2810 f          1 QQM      -0.184000
     28 N02        -38.0800     6.5200    -2.2950 na         1 QQM      -0.282500
     29 N05        -37.3780     8.6220    -2.0430 nc         1 QQM      -0.679000
     30 N08        -37.0830     4.0230    -6.7160 nb         1 QQM      -0.742000
     31 N13        -39.8240     1.8540    -1.1150 ns         1 QQM      -0.140000
     32 O03        -37.7370     7.8740     3.0140 oh         1 QQM      -0.656000
     33 O09        -38.9050     3.9800    -1.0970 o          1 QQM      -0.637100
     34 H1         -37.2980    10.1780    -7.5520 ha         1 QQM       0.129000
     35 H2         -34.9890     9.7820    -3.1500 ha         1 QQM       0.127500
     36 H3         -34.0950    11.3150    -4.9000 ha         1 QQM       0.129000
     37 H4         -38.2070     8.6470    -5.8110 ha         1 QQM       0.127500
     38 H5         -38.3780     8.5860     0.4050 hc         1 QQM       0.067700
     39 H6         -39.2760     7.0990     0.1440 hc         1 QQM       0.067700
     40 H7         -37.1140     5.7870     0.4460 hc         1 QQM       0.055200
     41 H8         -36.2870     7.2880     0.8360 hc         1 QQM       0.055200
     42 H9         -38.6440     6.0970     2.4070 h1         1 QQM       0.011700
     43 H10        -36.9340     5.9610     2.8590 h1         1 QQM       0.011700
     44 H11        -38.9470     4.6420    -3.9770 ha         1 QQM       0.136000
     45 H12        -35.8300     7.0180    -5.7630 ha         1 QQM       0.137000
     46 H13        -35.6520     5.2930    -7.5310 h4         1 QQM       0.018100
     47 H14        -41.5880     0.1510    -2.1760 ha         1 QQM       0.114000
     48 H15        -41.9010    -0.3510    -4.5650 ha         1 QQM       0.122000
     49 H16        -41.4680    -0.1390    -8.2210 h1         1 QQM       0.042700
     50 H17        -41.3250    -1.1370    -6.7600 h1         1 QQM       0.042700
     51 H18        -42.5100     0.1960    -6.8230 h1         1 QQM       0.042700
     52 H19        -38.2950     2.7460    -3.1370 ha         1 QQM       0.146000
     53 H20        -39.6770     3.8850     1.4250 hc         1 QQM       0.061700
     54 H21        -39.9400     2.1100     1.3880 hc         1 QQM       0.061700
     55 H22        -37.9060     2.6900     2.7060 hc         1 QQM       0.046033
     56 H23        -37.4730     1.7470     1.2640 hc         1 QQM       0.046033
     57 H24        -37.2000     3.5030     1.2930 hc         1 QQM       0.046033
     58 H25        -38.4190     5.6000    -2.0170 hn         1 QQM       0.392000
     59 H27        -38.5450     2.2470    -6.6980 hn         1 QQM       0.521000
     60 H28        -40.1700     1.1420    -0.4840 hn         1 QQM       0.155000
     61 H29        -37.9910     7.7010     3.9480 ho         1 QQM       0.440000
     62 N11        -38.5710     2.6470    -5.7650 nu         1 QQM      -0.951900
     63 O06        -40.5090     0.7890    -6.6130 os         1 QQM      -0.340100
     64 C33        -39.2990     2.9840    -0.4930 c          1 QQM       0.623100
@<TRIPOS>BOND
     1     1     5 ar  
     2     1     6 ar  
     3     1    34 1   
     4     2     3 ar  
     5     2     6 ar  
     6     2     7 1   
     7     3     4 ar  
     8     3    35 1   
     9     4     5 ar  
    10     4    36 1   
    11     5    27 1   
    12     6    37 1   
    13     7     8 2   
    14     7    29 1   
    15     8    15 1   
    16     8    28 1   
    17     9    10 1   
    18     9    28 1   
    19     9    29 2   
    20    10    11 1   
    21    10    38 1   
    22    10    39 1   
    23    11    12 1   
    24    11    40 1   
    25    11    41 1   
    26    12    32 1   
    27    12    42 1   
    28    12    43 1   
    29    13    14 ar  
    30    13    30 ar  
    31    13    62 1   
    32    14    15 ar  
    33    14    44 1   
    34    15    16 ar  
    35    16    17 ar  
    36    16    45 1   
    37    17    30 ar  
    38    17    46 1   
    39    18    19 ar  
    40    18    22 ar  
    41    18    47 1   
    42    19    20 ar  
    43    19    48 1   
    44    20    21 ar  
    45    20    63 1   
    46    21    24 ar  
    47    21    62 1   
    48    22    24 ar  
    49    22    31 1   
    50    23    49 1   
    51    23    50 1   
    52    23    51 1   
    53    23    63 1   
    54    24    52 1   
    55    25    26 1   
    56    25    53 1   
    57    25    54 1   
    58    25    64 1   
    59    26    55 1   
    60    26    56 1   
    61    26    57 1   
    62    28    58 1   
    63    31    60 1   
    64    31    64 1   
    65    32    61 1   
    66    33    64 2   
    67    59    62 1   
@<TRIPOS>SUBSTRUCTURE
     1 QQM         1 TEMP              0 ****  ****    0 ROOT
