@<TRIPOS>MOLECULE
QQM
   64    67     1     0     0
SMALL
bcc


@<TRIPOS>ATOM
      1 C10        -36.7400     9.8640    -6.7260 ca         1 QQM      -0.177500
      2 C14        -36.7900     9.0360    -4.4480 ca         1 QQM      -0.117500
      3 C01        -36.0390    10.1450    -4.0540 ca         1 QQM      -0.085500
      4 C04        -35.6300    11.0990    -4.9720 ca         1 QQM      -0.177500
      5 C07        -35.9840    10.9370    -6.2970 ca         1 QQM       0.131900
      6 C12        -37.1450     8.9210    -5.7930 ca         1 QQM      -0.085500
      7 C15        -37.2180     8.0570    -3.4450 cc         1 QQM       0.382800
      8 C16        -37.3940     6.6910    -3.5520 cd         1 QQM      -0.169600
      9 C17        -37.9390     7.3960    -1.5360 cd         1 QQM       0.413800
     10 C18        -38.3590     7.3190    -0.1090 c3         1 QQM      -0.097700
     11 C19        -37.2530     6.7470     0.7840 c3         1 QQM      -0.078400
     12 C20        -37.6810     6.5670     2.2260 c3         1 QQM       0.142400
     13 C21        -37.6690     3.5880    -5.6200 ca         1 QQM       0.682200
     14 C22        -37.9530     4.5750    -4.6670 ca         1 QQM      -0.307300
     15 C23        -37.1570     5.7080    -4.6020 ca         1 QQM       0.072000
     16 C24        -36.1190     5.8390    -5.5330 ca         1 QQM      -0.281300
     17 C25        -35.9640     4.8380    -6.4700 ca         1 QQM       0.444200
     18 C26        -41.1080     0.9950    -2.8820 ca         1 QQM      -0.152000
     19 C27        -41.3400     0.7960    -4.2370 ca         1 QQM      -0.171000
     20 C28        -40.4490     1.2780    -5.1870 ca         1 QQM       0.093100
     21 C29        -39.2780     1.9270    -4.7590 ca         1 QQM       0.164600
     22 C30        -39.9510     1.6310    -2.4560 ca         1 QQM       0.041600
     23 C31        -41.7560     0.5020    -7.0080 c3         1 QQM       0.125700
     24 C32        -39.0190     2.0450    -3.4010 ca         1 QQM      -0.148000
     25 C34        -39.1370     2.8590     1.0200 c3         1 QQM      -0.160400
     26 C35        -37.7050     2.7710     1.5420 c3         1 QQM      -0.086100
     27 F36        -35.5880    11.8550    -7.1950 f          1 QQM      -0.148900
     28 N02        -37.8670     6.3080    -2.3230 na         1 QQM      -0.282900
     29 N05        -37.5550     8.4690    -2.1860 nc         1 QQM      -0.679000
     30 N08        -36.7020     3.7330    -6.5220 nb         1 QQM      -0.742000
     31 N13        -39.7360     1.8130    -1.0780 ns         1 QQM      -0.466100
     32 O03        -38.0390     7.8200     2.7660 oh         1 QQM      -0.593800
     33 O09        -38.6860     3.8230    -1.1160 o          1 QQM      -0.637100
     34 H1         -37.0200     9.7680    -7.7670 ha         1 QQM       0.147000
     35 H2         -35.7640    10.2610    -3.0140 ha         1 QQM       0.145500
     36 H3         -35.0430    11.9540    -4.6590 ha         1 QQM       0.147000
     37 H4         -37.7570     8.0930    -6.1250 ha         1 QQM       0.145500
     38 H5         -38.6390     8.3180     0.2210 hc         1 QQM       0.067700
     39 H6         -39.2480     6.6880    -0.0310 hc         1 QQM       0.067700
     40 H7         -36.9500     5.7690     0.4050 hc         1 QQM       0.055200
     41 H8         -36.3700     7.3900     0.7370 hc         1 QQM       0.055200
     42 H9         -38.5210     5.8590     2.2690 h1         1 QQM       0.011700
     43 H10        -36.8560     6.1100     2.7860 h1         1 QQM       0.011700
     44 H11        -38.7920     4.4620    -3.9970 ha         1 QQM       0.154000
     45 H12        -35.4440     6.6820    -5.5190 ha         1 QQM       0.155000
     46 H13        -35.1830     4.9200    -7.2180 h4         1 QQM       0.018100
     47 H14        -41.8410     0.6520    -2.1620 ha         1 QQM       0.132000
     48 H15        -42.2500     0.2930    -4.5350 ha         1 QQM       0.140000
     49 H16        -41.6870     0.5230    -8.0930 h1         1 QQM       0.042700
     50 H17        -41.7930    -0.5390    -6.6760 h1         1 QQM       0.042700
     51 H18        -42.6790     1.0030    -6.7050 h1         1 QQM       0.042700
     52 H19        -38.0780     2.4710    -3.0880 ha         1 QQM       0.164000
     53 H20        -39.6040     3.7820     1.3720 hc         1 QQM       0.061700
     54 H21        -39.7290     2.0320     1.4150 hc         1 QQM       0.061700
     55 H22        -37.6980     2.8060     2.6310 hc         1 QQM       0.046033
     56 H23        -37.2300     1.8390     1.2350 hc         1 QQM       0.046033
     57 H24        -37.0960     3.5960     1.1750 hc         1 QQM       0.046033
     58 H25        -38.0840     5.3620    -2.0200 hn         1 QQM       0.341700
     59 H27        -38.2520     1.8970    -6.5570 hn         1 QQM       0.465800
     60 H28        -40.1680     1.1360    -0.4690 hn         1 QQM       0.321500
     61 H29        -38.3650     7.6810     3.6600 ho         1 QQM       0.401000
     62 N11        -38.3860     2.4230    -5.7070 nu         1 QQM      -0.758300
     63 O06        -40.6100     1.1710    -6.5200 os         1 QQM      -0.316900
     64 C33        -39.1680     2.8890    -0.4890 c          1 QQM       0.690100
@<TRIPOS>BOND
     1     1     5 ar  
     2     1     6 ar  
     3     1    34 1   
     4     2     3 ar  
     5     2     6 ar  
     6     2     7 1   
     7     3     4 ar  
     8     3    35 1   
     9     4     5 ar  
    10     4    36 1   
    11     5    27 1   
    12     6    37 1   
    13     7     8 2   
    14     7    29 1   
    15     8    15 1   
    16     8    28 1   
    17     9    10 1   
    18     9    28 1   
    19     9    29 2   
    20    10    11 1   
    21    10    38 1   
    22    10    39 1   
    23    11    12 1   
    24    11    40 1   
    25    11    41 1   
    26    12    32 1   
    27    12    42 1   
    28    12    43 1   
    29    13    14 ar  
    30    13    30 ar  
    31    13    62 1   
    32    14    15 ar  
    33    14    44 1   
    34    15    16 ar  
    35    16    17 ar  
    36    16    45 1   
    37    17    30 ar  
    38    17    46 1   
    39    18    19 ar  
    40    18    22 ar  
    41    18    47 1   
    42    19    20 ar  
    43    19    48 1   
    44    20    21 ar  
    45    20    63 1   
    46    21    24 ar  
    47    21    62 1   
    48    22    24 ar  
    49    22    31 1   
    50    23    49 1   
    51    23    50 1   
    52    23    51 1   
    53    23    63 1   
    54    24    52 1   
    55    25    26 1   
    56    25    53 1   
    57    25    54 1   
    58    25    64 1   
    59    26    55 1   
    60    26    56 1   
    61    26    57 1   
    62    28    58 1   
    63    31    60 1   
    64    31    64 1   
    65    32    61 1   
    66    33    64 2   
    67    59    62 1   
@<TRIPOS>SUBSTRUCTURE
     1 QQM         1 TEMP              0 ****  ****    0 ROOT
