@<TRIPOS>MOLECULE
QQN
   54    57     1     0     0
SMALL
No Charge or Current Charge


@<TRIPOS>ATOM
      1 C4          12.6390   -13.6790    14.0680 ca         1 QQN       0.030100
      2 C5          12.2700   -14.7580    13.2630 ca         1 QQN      -0.068000
      3 C6          10.8930   -14.9420    12.9950 ca         1 QQN      -0.110600
      4 C7          10.4580   -16.1170    12.1370 c          1 QQN       0.623700
      5 N12         12.4130   -11.8080    15.3860 nc         1 QQN      -0.632100
      6 C15         16.3730   -10.9810    14.0610 ca         1 QQN      -0.105300
      7 C17         16.8390    -8.9520    12.7860 ca         1 QQN       0.122000
      8 C20         16.3820   -11.7220    12.8600 ca         1 QQN      -0.095000
      9 C22          8.6330   -17.2780    10.8900 c6         1 QQN       0.093000
     10 C24          6.8470   -15.9290     9.6690 c6         1 QQN       0.178300
     11 C26          8.9090   -14.8220    10.6580 c6         1 QQN       0.107000
     12 C25          7.4010   -14.6470    10.3420 c6         1 QQN      -0.117700
     13 O27          5.4380   -15.8190     9.4500 oh         1 QQN      -0.657000
     14 C23          7.1290   -17.1500    10.5640 c6         1 QQN      -0.092400
     15 N9           9.2120   -16.0360    11.4740 n          1 QQN      -0.411800
     16 O8          11.1260   -17.1440    12.0990 o          1 QQN      -0.595100
     17 C1           9.9500   -14.0490    13.5860 ca         1 QQN      -0.191000
     18 C2          10.3680   -12.9610    14.3980 ca         1 QQN       0.175100
     19 O29          9.4750   -12.0730    14.9710 os         1 QQN      -0.309100
     20 C30          8.0560   -12.1690    14.7600 c3         1 QQN       0.142900
     21 C3          11.7500   -12.7920    14.6270 ca         1 QQN       0.081400
     22 O10         13.8700   -13.3020    14.4430 os         1 QQN      -0.294700
     23 C11         13.6750   -12.1960    15.2110 cd         1 QQN       0.766500
     24 N13         14.7010   -11.5270    15.7650 nu         1 QQN      -0.899400
     25 C14         16.1090   -11.6730    15.3920 c3         1 QQN       0.289100
     26 C16         16.6030    -9.5910    14.0150 ca         1 QQN      -0.090000
     27 Cl1         17.1240    -7.2170    12.7400 cl         1 QQN      -0.203000
     28 C18         16.8480    -9.6950    11.5940 ca         1 QQN      -0.097000
     29 C19         16.6190   -11.0810    11.6310 ca         1 QQN      -0.100000
     30 H1          13.0260   -15.4240    12.8500 ha         1 QQN       0.148000
     31 H2          16.2040   -12.7950    12.8790 ha         1 QQN       0.118000
     32 H3           8.7710   -18.1140    11.5910 h1         1 QQN       0.060200
     33 H4           9.1830   -17.5290     9.9710 h1         1 QQN       0.060200
     34 H5           7.3620   -16.0740     8.7070 h1         1 QQN       0.025700
     35 H6           9.4630   -14.9020     9.7110 h1         1 QQN       0.053700
     36 H7           9.2790   -13.9150    11.1520 h1         1 QQN       0.053700
     37 H11          6.8710   -14.4870    11.2920 hc         1 QQN       0.064700
     38 H12          5.3090   -15.0490     8.8550 ho         1 QQN       0.443000
     39 H13          6.5630   -17.0620    11.5020 hc         1 QQN       0.062700
     40 H14          6.7790   -18.0670    10.0720 hc         1 QQN       0.062700
     41 H15          8.8910   -14.2220    13.4180 ha         1 QQN       0.125000
     42 H16          7.5380   -11.3620    15.2930 h1         1 QQN       0.042367
     43 H17          7.8140   -12.0820    13.6930 h1         1 QQN       0.042367
     44 H18          7.6700   -13.1250    15.1340 h1         1 QQN       0.042367
     45 H19         14.3970   -10.6550    16.1870 hn         1 QQN       0.524000
     46 H20         16.3780   -12.7360    15.3170 h1         1 QQN       0.063200
     47 H21         16.7530   -11.2310    16.1660 h1         1 QQN       0.063200
     48 H22         16.5970    -9.0040    14.9310 ha         1 QQN       0.131000
     49 H23         17.0310    -9.1970    10.6450 ha         1 QQN       0.131000
     50 H24         16.6240   -11.6580    10.7090 ha         1 QQN       0.121000
     51 C28          7.1720   -13.3670     9.4870 c3         1 QQN      -0.093100
     52 H8           7.6050   -12.4850     9.9740 hc         1 QQN       0.038033
     53 H9           7.6350   -13.4590     8.4960 hc         1 QQN       0.038033
     54 H10          6.1050   -13.1600     9.3410 hc         1 QQN       0.038033
@<TRIPOS>BOND
     1     1     2 ar  
     2     1    21 ar  
     3     1    22 1   
     4     2     3 ar  
     5     2    30 1   
     6     3     4 1   
     7     3    17 ar  
     8     4    15 1   
     9     4    16 2   
    10     5    21 1   
    11     5    23 2   
    12     6     8 ar  
    13     6    25 1   
    14     6    26 ar  
    15     7    26 ar  
    16     7    27 1   
    17     7    28 ar  
    18     8    29 ar  
    19     8    31 1   
    20     9    14 1   
    21     9    15 1   
    22     9    32 1   
    23     9    33 1   
    24    10    12 1   
    25    10    13 1   
    26    10    14 1   
    27    10    34 1   
    28    11    12 1   
    29    11    15 1   
    30    11    35 1   
    31    11    36 1   
    32    12    37 1   
    33    12    51 1   
    34    13    38 1   
    35    14    39 1   
    36    14    40 1   
    37    17    18 ar  
    38    17    41 1   
    39    18    19 1   
    40    18    21 ar  
    41    19    20 1   
    42    20    42 1   
    43    20    43 1   
    44    20    44 1   
    45    22    23 1   
    46    23    24 1   
    47    24    25 1   
    48    24    45 1   
    49    25    46 1   
    50    25    47 1   
    51    26    48 1   
    52    28    29 ar  
    53    28    49 1   
    54    29    50 1   
    55    51    52 1   
    56    51    53 1   
    57    51    54 1   
@<TRIPOS>SUBSTRUCTURE
     1 QQN         1 TEMP              0 ****  ****    0 ROOT
