@<TRIPOS>MOLECULE
QQN
   54    57     1     0     0
SMALL
abcg2


@<TRIPOS>ATOM
      1 C4          12.4890   -13.4410    13.9800 ca         1 QQN       0.030100
      2 C5          12.2400   -14.4940    13.1290 ca         1 QQN      -0.068000
      3 C6          10.8950   -14.7600    12.8960 ca         1 QQN      -0.110600
      4 C7          10.5570   -15.9420    12.0440 c          1 QQN       0.623700
      5 N12         12.1230   -11.7130    15.3910 nc         1 QQN      -0.632100
      6 C15         16.1840   -11.2010    14.0050 ca         1 QQN      -0.105300
      7 C17         16.0380    -9.8020    12.0640 ca         1 QQN       0.122000
      8 C20         17.1160   -11.9900    13.3400 ca         1 QQN      -0.095000
      9 C22          9.0950   -16.9480    10.3720 c6         1 QQN       0.093000
     10 C24          6.9970   -15.6480     9.8890 c6         1 QQN       0.178300
     11 C26          9.1140   -14.5350    10.5700 c6         1 QQN       0.107000
     12 C25          7.5920   -14.4570    10.6460 c6         1 QQN      -0.117700
     13 O27          5.5930   -15.7220    10.0020 oh         1 QQN      -0.657000
     14 C23          7.5720   -16.9550    10.4130 c6         1 QQN      -0.092400
     15 N9           9.6060   -15.7960    11.0960 n          1 QQN      -0.411800
     16 O8          11.1340   -17.0050    12.2420 o          1 QQN      -0.595100
     17 C1           9.8830   -14.0210    13.5290 ca         1 QQN      -0.191000
     18 C2          10.1720   -12.9710    14.3940 ca         1 QQN       0.175100
     19 O29          9.2680   -12.2180    15.0370 os         1 QQN      -0.309100
     20 C30          7.8980   -12.4520    14.7740 c3         1 QQN       0.142900
     21 C3          11.5200   -12.6780    14.6130 ca         1 QQN       0.081400
     22 O10         13.6970   -12.9430    14.3740 os         1 QQN      -0.294700
     23 C11         13.3910   -11.9250    15.2070 cd         1 QQN       0.766500
     24 N13         14.4160   -11.2650    15.7460 nu         1 QQN      -0.899400
     25 C14         15.7990   -11.5290    15.4290 c3         1 QQN       0.289100
     26 C16         15.6420   -10.0960    13.3580 ca         1 QQN      -0.090000
     27 CL1         15.3510    -8.4230    11.2640 cl         1 QQN      -0.203000
     28 C18         16.9680   -10.5790    11.3920 ca         1 QQN      -0.097000
     29 C19         17.5060   -11.6780    12.0450 ca         1 QQN      -0.100000
     30 H1          13.0300   -15.0670    12.6650 ha         1 QQN       0.148000
     31 H2          17.5340   -12.8590    13.8340 ha         1 QQN       0.118000
     32 H3           9.4930   -17.8590    10.8090 h1         1 QQN       0.060200
     33 H4           9.4420   -16.9040     9.3340 h1         1 QQN       0.060200
     34 H5           7.2920   -15.5450     8.8310 h1         1 QQN       0.025700
     35 H6           9.4300   -14.4520     9.5210 h1         1 QQN       0.053700
     36 H7           9.5680   -13.6970    11.0920 h1         1 QQN       0.053700
     37 H11          7.2940   -14.5450    11.6990 hc         1 QQN       0.064700
     38 H12          5.2050   -14.9690     9.5470 ho         1 QQN       0.443000
     39 H13          7.2390   -17.1180    11.4420 hc         1 QQN       0.062700
     40 H14          7.2060   -17.7920     9.8150 hc         1 QQN       0.062700
     41 H15          8.8540   -14.3000    13.3490 ha         1 QQN       0.125000
     42 H16          7.3410   -11.7220    15.3550 h1         1 QQN       0.042367
     43 H17          7.6590   -12.3140    13.7150 h1         1 QQN       0.042367
     44 H18          7.5880   -13.4560    15.0770 h1         1 QQN       0.042367
     45 H19         14.1870   -10.4800    16.3330 hn         1 QQN       0.524000
     46 H20         16.0490   -12.5690    15.6450 h1         1 QQN       0.063200
     47 H21         16.3900   -10.9230    16.1150 h1         1 QQN       0.063200
     48 H22         14.9130    -9.4690    13.8570 ha         1 QQN       0.131000
     49 H23         17.2640   -10.3380    10.3800 ha         1 QQN       0.131000
     50 H24         18.2290   -12.3000    11.5330 ha         1 QQN       0.121000
     51 C28          7.1080   -13.1170    10.1080 c3         1 QQN      -0.093100
     52 H8           7.5850   -12.2910    10.6370 hc         1 QQN       0.038033
     53 H9           7.3410   -13.0070     9.0460 hc         1 QQN       0.038033
     54 H10          6.0320   -12.9920    10.2310 hc         1 QQN       0.038033
@<TRIPOS>BOND
     1     1     2 ar  
     2     1    21 ar  
     3     1    22 1   
     4     2     3 ar  
     5     2    30 1   
     6     3     4 1   
     7     3    17 ar  
     8     4    15 1   
     9     4    16 2   
    10     5    21 1   
    11     5    23 2   
    12     6     8 ar  
    13     6    25 1   
    14     6    26 ar  
    15     7    26 ar  
    16     7    27 1   
    17     7    28 ar  
    18     8    29 ar  
    19     8    31 1   
    20     9    14 1   
    21     9    15 1   
    22     9    32 1   
    23     9    33 1   
    24    10    12 1   
    25    10    13 1   
    26    10    14 1   
    27    10    34 1   
    28    11    12 1   
    29    11    15 1   
    30    11    35 1   
    31    11    36 1   
    32    12    37 1   
    33    12    51 1   
    34    13    38 1   
    35    14    39 1   
    36    14    40 1   
    37    17    18 ar  
    38    17    41 1   
    39    18    19 1   
    40    18    21 ar  
    41    19    20 1   
    42    20    42 1   
    43    20    43 1   
    44    20    44 1   
    45    22    23 1   
    46    23    24 1   
    47    24    25 1   
    48    24    45 1   
    49    25    46 1   
    50    25    47 1   
    51    26    48 1   
    52    28    29 ar  
    53    28    49 1   
    54    29    50 1   
    55    51    52 1   
    56    51    53 1   
    57    51    54 1   
@<TRIPOS>SUBSTRUCTURE
     1 QQN         1 TEMP              0 ****  ****    0 ROOT
