@<TRIPOS>MOLECULE
QQO
   63    66     1     0     0
SMALL
abcg2


@<TRIPOS>ATOM
      1 N1         -22.2930     6.6550    28.1300 ns         1 QQO      -0.529900
      2 N3         -16.7220     4.5470    25.6960 nb         1 QQO      -0.644000
      3 C4         -21.5810    11.1580    27.2630 c6         1 QQO       0.152600
      4 C5         -22.1950     9.0800    28.1740 c6         1 QQO       0.088300
      5 C6         -22.8200     9.7770    29.3820 c6         1 QQO       0.145800
      6 C7         -21.6010     7.7310    28.5670 c          1 QQO       0.585100
      7 C8         -21.8980     5.2740    28.3850 c3         1 QQO       0.105700
      8 C10        -20.3870     5.0930    28.0200 c          1 QQO       0.611100
      9 C13        -16.2880     5.6270    25.0880 ca         1 QQO       0.343900
     10 C15        -16.5220     7.9730    24.3430 ca         1 QQO      -0.083000
     11 C17        -18.5170     9.1880    24.9340 ca         1 QQO      -0.091000
     12 C20        -22.1690     4.8450    29.8260 ca         1 QQO      -0.072300
     13 C21        -22.7540     5.7000    30.7540 ca         1 QQO      -0.078000
     14 C22        -23.0290     5.2730    32.0460 ca         1 QQO      -0.101000
     15 C24        -22.1520     3.1060    31.5080 ca         1 QQO       0.123000
     16 CL1        -21.7630     1.4630    31.9370 cl         1 QQO      -0.177000
     17 C23        -22.7270     3.9760    32.4340 ca         1 QQO       0.131000
     18 CL         -23.0800     3.4690    34.0590 cl         1 QQO      -0.178000
     19 C25        -21.8790     3.5390    30.2190 ca         1 QQO      -0.062000
     20 C9         -22.7180     4.3870    27.4260 c3         1 QQO      -0.104100
     21 O1         -20.5710     7.6370    29.2220 o          1 QQO      -0.539100
     22 O          -21.1310     9.8520    27.6350 os         1 QQO      -0.441000
     23 C3         -22.1940    11.8820    28.4460 c6         1 QQO       0.135800
     24 N          -23.2990    11.0910    28.9790 n3         1 QQO      -0.741600
     25 C1         -24.1190    11.7540    30.0110 c3         1 QQO       0.189500
     26 C2         -23.3350    12.2270    31.2420 c3         1 QQO      -0.105100
     27 C          -24.9330    12.8950    29.4050 c3         1 QQO      -0.105100
     28 O2         -19.6220     4.4340    28.7000 o          1 QQO      -0.549100
     29 N2         -20.0470     5.6700    26.8370 ns         1 QQO      -0.144000
     30 C11        -18.7660     5.6890    26.2550 ca         1 QQO      -0.067000
     31 C19        -18.3110     6.8790    25.6180 ca         1 QQO      -0.029000
     32 C18        -19.0380     8.0920    25.5750 ca         1 QQO      -0.099000
     33 C16        -17.2550     9.1310    24.3050 ca         1 QQO      -0.110000
     34 C14        -17.0290     6.8300    25.0030 ca         1 QQO      -0.084000
     35 C12        -17.9530     4.5790    26.2640 ca         1 QQO       0.316900
     36 H1         -23.1400     6.8080    27.6030 hn         1 QQO       0.321500
     37 H3         -22.3150    11.0720    26.4530 h1         1 QQO       0.054700
     38 H4         -22.9670     8.9430    27.4080 h1         1 QQO       0.045700
     39 H5         -23.6600     9.1820    29.7460 h1         1 QQO       0.053200
     40 H6         -22.0620     9.8240    30.1790 h1         1 QQO       0.053200
     41 H7         -15.3060     5.5820    24.6270 h4         1 QQO       0.020100
     42 H8         -15.5460     7.9160    23.8760 ha         1 QQO       0.118000
     43 H9         -19.0810    10.1130    24.9170 ha         1 QQO       0.113000
     44 H10        -23.0160     6.7120    30.4830 ha         1 QQO       0.116000
     45 H11        -23.4820     5.9490    32.7590 ha         1 QQO       0.131000
     46 H12        -21.4320     2.8410    29.5290 ha         1 QQO       0.141000
     47 H13        -22.4150     3.3470    27.5160 hc         1 QQO       0.055033
     48 H14        -23.7760     4.4650    27.6800 hc         1 QQO       0.055033
     49 H15        -22.5760     4.7040    26.3930 hc         1 QQO       0.055033
     50 H16        -21.4100    12.0590    29.1990 h1         1 QQO       0.049200
     51 H17        -22.5610    12.8520    28.1110 h1         1 QQO       0.049200
     52 H19        -24.8250    10.9850    30.3400 h1         1 QQO       0.051700
     53 H20        -24.0270    12.5860    32.0060 hc         1 QQO       0.040367
     54 H21        -22.7450    11.4200    31.6790 hc         1 QQO       0.040367
     55 H22        -22.6610    13.0490    30.9910 hc         1 QQO       0.040367
     56 H23        -25.6430    13.2750    30.1420 hc         1 QQO       0.040367
     57 H24        -24.2970    13.7290    29.1010 hc         1 QQO       0.040367
     58 H25        -25.4890    12.5490    28.5320 hc         1 QQO       0.040367
     59 H26        -20.7470     6.2490    26.3990 hn         1 QQO       0.154000
     60 H27        -19.9960     8.1810    26.0660 ha         1 QQO       0.120000
     61 H28        -16.8670    10.0080    23.8020 ha         1 QQO       0.116000
     62 H29        -18.2860     3.6680    26.7400 h4         1 QQO       0.038100
     63 H2         -20.7020    11.6860    26.8940 h1         1 QQO       0.054700
@<TRIPOS>BOND
     1     1     6 1   
     2     1     7 1   
     3     1    36 1   
     4     2     9 ar  
     5     2    35 ar  
     6     3    22 1   
     7     3    23 1   
     8     3    37 1   
     9     3    63 1   
    10     4     5 1   
    11     4     6 1   
    12     4    22 1   
    13     4    38 1   
    14     5    24 1   
    15     5    39 1   
    16     5    40 1   
    17     6    21 2   
    18     7     8 1   
    19     7    12 1   
    20     7    20 1   
    21     8    28 2   
    22     8    29 1   
    23     9    34 ar  
    24     9    41 1   
    25    10    33 ar  
    26    10    34 ar  
    27    10    42 1   
    28    11    32 ar  
    29    11    33 ar  
    30    11    43 1   
    31    12    13 ar  
    32    12    19 ar  
    33    13    14 ar  
    34    13    44 1   
    35    14    17 ar  
    36    14    45 1   
    37    15    16 1   
    38    15    17 ar  
    39    15    19 ar  
    40    17    18 1   
    41    19    46 1   
    42    20    47 1   
    43    20    48 1   
    44    20    49 1   
    45    23    24 1   
    46    23    50 1   
    47    23    51 1   
    48    24    25 1   
    49    25    26 1   
    50    25    27 1   
    51    25    52 1   
    52    26    53 1   
    53    26    54 1   
    54    26    55 1   
    55    27    56 1   
    56    27    57 1   
    57    27    58 1   
    58    29    30 1   
    59    29    59 1   
    60    30    31 ar  
    61    30    35 ar  
    62    31    32 ar  
    63    31    34 ar  
    64    32    60 1   
    65    33    61 1   
    66    35    62 1   
@<TRIPOS>SUBSTRUCTURE
     1 QQO         1 TEMP              0 ****  ****    0 ROOT
