@<TRIPOS>MOLECULE
QQO
   63    66     1     0     0
SMALL
No Charge or Current Charge


@<TRIPOS>ATOM
      1 N1         -21.8310     6.9620    28.6250 ns         1 QQO      -0.529900
      2 N3         -17.0980     4.2900    25.0720 nb         1 QQO      -0.644000
      3 C4         -20.6440    11.6800    29.3830 c6         1 QQO       0.152600
      4 C5         -21.2250     9.3990    28.8130 c6         1 QQO       0.088300
      5 C6         -22.7460     9.7160    28.9730 c6         1 QQO       0.145800
      6 C7         -20.8580     7.8910    28.9800 c          1 QQO       0.585100
      7 C8         -21.7170     5.4820    28.7690 c3         1 QQO       0.105700
      8 C10        -20.4240     4.9490    28.0180 c          1 QQO       0.611100
      9 C13        -16.7860     5.3390    24.2800 ca         1 QQO       0.343900
     10 C15        -17.1230     7.6120    23.4490 ca         1 QQO      -0.083000
     11 C17        -18.9150     8.9790    24.3620 ca         1 QQO      -0.091000
     12 C20        -21.7790     5.0280    30.2590 ca         1 QQO      -0.072300
     13 C21        -21.9360     5.9460    31.3290 ca         1 QQO      -0.078000
     14 C22        -22.0140     5.5020    32.6610 ca         1 QQO      -0.101000
     15 C24        -21.8220     3.2030    31.9120 ca         1 QQO       0.123000
     16 Cl1        -21.7600     1.4700    32.2390 cl         1 QQO      -0.177000
     17 C23        -21.9510     4.1340    32.9580 ca         1 QQO       0.131000
     18 Cl         -22.0530     3.6140    34.6410 cl         1 QQO      -0.178000
     19 C25        -21.7450     3.6480    30.5810 ca         1 QQO      -0.062000
     20 C9         -22.9520     4.8950    28.0400 c3         1 QQO      -0.104100
     21 O1         -19.7770     7.5300    29.4250 o          1 QQO      -0.539100
     22 O          -20.4140    10.2770    29.6490 os         1 QQO      -0.441000
     23 C3         -22.1440    12.0330    29.5960 c6         1 QQO       0.135800
     24 N          -23.0380    11.1690    28.7540 n3         1 QQO      -0.741600
     25 C1         -24.4890    11.5110    28.7970 c3         1 QQO       0.189500
     26 C2         -25.1430    11.3460    30.1910 c3         1 QQO      -0.105100
     27 C          -24.7770    12.9150    28.2200 c3         1 QQO      -0.105100
     28 O2         -19.8130     3.9470    28.3740 o          1 QQO      -0.549100
     29 N2         -20.0030     5.7360    26.9490 ns         1 QQO      -0.144000
     30 C11        -18.9100     5.6150    26.0390 ca         1 QQO      -0.067000
     31 C19        -18.5790     6.7040    25.1950 ca         1 QQO      -0.029000
     32 C18        -19.2890     7.9280    25.2170 ca         1 QQO      -0.099000
     33 C16        -17.8340     8.8230    23.4790 ca         1 QQO      -0.110000
     34 C14        -17.4930     6.5560    24.3030 ca         1 QQO      -0.084000
     35 C12        -18.1360     4.4310    25.9290 ca         1 QQO       0.316900
     36 H1         -22.7070     7.3310    28.2720 hn         1 QQO       0.321500
     37 H3         -20.3480    11.9070    28.3480 h1         1 QQO       0.054700
     38 H4         -20.9680     9.6190    27.7670 h1         1 QQO       0.045700
     39 H5         -23.3210     9.1170    28.2520 h1         1 QQO       0.053200
     40 H6         -23.0580     9.4010    29.9800 h1         1 QQO       0.053200
     41 H7         -15.9450     5.1960    23.6020 h4         1 QQO       0.020100
     42 H8         -16.2860     7.4970    22.7620 ha         1 QQO       0.118000
     43 H9         -19.4650     9.9180    24.3840 ha         1 QQO       0.113000
     44 H10        -22.0130     7.0140    31.1540 ha         1 QQO       0.116000
     45 H11        -22.1290     6.2240    33.4660 ha         1 QQO       0.131000
     46 H12        -21.6580     2.8990    29.7980 ha         1 QQO       0.141000
     47 H13        -22.9240     3.7990    28.0220 hc         1 QQO       0.055033
     48 H14        -23.8800     5.2010    28.5390 hc         1 QQO       0.055033
     49 H15        -22.9960     5.2410    26.9990 hc         1 QQO       0.055033
     50 H16        -22.3800    11.9130    30.6640 h1         1 QQO       0.049200
     51 H17        -22.2800    13.0960    29.3530 h1         1 QQO       0.049200
     52 H19        -25.0100    10.8100    28.1300 h1         1 QQO       0.051700
     53 H20        -26.2170    11.5570    30.1330 hc         1 QQO       0.040367
     54 H21        -25.0300    10.3240    30.5670 hc         1 QQO       0.040367
     55 H22        -24.7050    12.0360    30.9210 hc         1 QQO       0.040367
     56 H23        -25.8550    13.0590    28.0860 hc         1 QQO       0.040367
     57 H24        -24.4130    13.7060    28.8860 hc         1 QQO       0.040367
     58 H25        -24.2960    13.0350    27.2410 hc         1 QQO       0.040367
     59 H26        -20.5860     6.5450    26.7850 hn         1 QQO       0.154000
     60 H27        -20.1290     8.0820    25.8860 ha         1 QQO       0.120000
     61 H28        -17.5480     9.6390    22.8190 ha         1 QQO       0.116000
     62 H29        -18.3500     3.5490    26.5270 h4         1 QQO       0.038100
     63 H2         -20.0180    12.2810    30.0570 h1         1 QQO       0.054700
@<TRIPOS>BOND
     1     1     6 1   
     2     1     7 1   
     3     1    36 1   
     4     2     9 ar  
     5     2    35 ar  
     6     3    22 1   
     7     3    23 1   
     8     3    37 1   
     9     3    63 1   
    10     4     5 1   
    11     4     6 1   
    12     4    22 1   
    13     4    38 1   
    14     5    24 1   
    15     5    39 1   
    16     5    40 1   
    17     6    21 2   
    18     7     8 1   
    19     7    12 1   
    20     7    20 1   
    21     8    28 2   
    22     8    29 1   
    23     9    34 ar  
    24     9    41 1   
    25    10    33 ar  
    26    10    34 ar  
    27    10    42 1   
    28    11    32 ar  
    29    11    33 ar  
    30    11    43 1   
    31    12    13 ar  
    32    12    19 ar  
    33    13    14 ar  
    34    13    44 1   
    35    14    17 ar  
    36    14    45 1   
    37    15    16 1   
    38    15    17 ar  
    39    15    19 ar  
    40    17    18 1   
    41    19    46 1   
    42    20    47 1   
    43    20    48 1   
    44    20    49 1   
    45    23    24 1   
    46    23    50 1   
    47    23    51 1   
    48    24    25 1   
    49    25    26 1   
    50    25    27 1   
    51    25    52 1   
    52    26    53 1   
    53    26    54 1   
    54    26    55 1   
    55    27    56 1   
    56    27    57 1   
    57    27    58 1   
    58    29    30 1   
    59    29    59 1   
    60    30    31 ar  
    61    30    35 ar  
    62    31    32 ar  
    63    31    34 ar  
    64    32    60 1   
    65    33    61 1   
    66    35    62 1   
@<TRIPOS>SUBSTRUCTURE
     1 QQO         1 TEMP              0 ****  ****    0 ROOT
