@<TRIPOS>MOLECULE
QQP
   48    51     1     0     0
SMALL
No Charge or Current Charge


@<TRIPOS>ATOM
      1 N12          2.4310    34.8200    12.2290 nc         1 QQP      -0.547100
      2 C13          3.4520    33.8720    12.1470 ca         1 QQP      -0.097600
      3 C16          5.1370    31.8010    12.0830 ca         1 QQP       0.189900
      4 C18          4.8140    34.0480    11.8220 ca         1 QQP       0.454900
      5 C22          6.1670    30.8220    15.8440 cc         1 QQP       0.503500
      6 C24          7.0590    33.0060    15.1390 ca         1 QQP      -0.081000
      7 C25          7.9520    33.8180    14.4250 ca         1 QQP      -0.076000
      8 C27          9.0170    31.8310    13.5180 ca         1 QQP      -0.067000
      9 N33          6.6780    30.0240    16.8230 ns         1 QQP      -0.408400
     10 C02          5.9360    29.2520    17.6470 c          1 QQP       0.552200
     11 C03          4.4750    29.3750    17.3830 cc         1 QQP       0.096900
     12 C05          3.9580    30.2170    16.3960 cd         1 QQP      -0.077600
     13 C06          2.4740    30.2720    16.1990 c          1 QQP       0.632300
     14 C08          0.7900    31.3670    14.6630 c3         1 QQP       0.088000
     15 C11          1.3710    34.0660    12.5790 cd         1 QQP       0.408700
     16 C14          3.0180    32.6000    12.4280 ca         1 QQP       0.119500
     17 C23          7.1390    31.5990    15.0680 ca         1 QQP      -0.091900
     18 C26          8.9350    33.2290    13.6210 ca         1 QQP      -0.103000
     19 C28          8.1170    30.9940    14.2210 ca         1 QQP      -0.176300
     20 F30          8.8040    28.8680    15.0880 f          1 QQP      -0.109000
     21 F31          6.9920    28.8900    13.8820 f          1 QQP      -0.109000
     22 F32          8.9220    29.1130    12.9380 f          1 QQP      -0.109000
     23 N07          2.1360    31.1300    15.1880 ns         1 QQP      -0.465900
     24 N10          1.6800    32.7020    12.7150 na         1 QQP      -0.283300
     25 N15          3.8470    31.5380    12.4030 nb         1 QQP      -0.228000
     26 N17          5.6640    33.0120    11.7830 nb         1 QQP      -0.316000
     27 N19          5.3430    35.2630    11.5180 nv         1 QQP      -1.064900
     28 N21          4.8630    30.9800    15.6180 nd         1 QQP      -0.584300
     29 O04          3.6830    28.6050    18.1810 oh         1 QQP      -0.499100
     30 O20          1.6550    29.6300    16.8490 o          1 QQP      -0.665100
     31 H1           5.8180    30.9520    12.0630 h5         1 QQP       0.048100
     32 H2           6.3000    33.4750    15.7620 ha         1 QQP       0.136000
     33 H3           7.8800    34.9010    14.4950 ha         1 QQP       0.134000
     34 H4           9.7850    31.4070    12.8750 ha         1 QQP       0.136000
     35 H5           7.6770    29.9950    16.9570 hn         1 QQP       0.341500
     36 H6           0.3720    32.2550    15.1550 h1         1 QQP       0.063200
     37 H7           0.1460    30.5090    14.8960 h1         1 QQP       0.063200
     38 H8          -0.2110    31.7810    12.7860 h1         1 QQP       0.076700
     39 H9           1.1540    30.6630    12.6440 h1         1 QQP       0.076700
     40 H10          0.3660    34.4320    12.7560 h5         1 QQP       0.068800
     41 H11          9.6310    33.8560    13.0680 ha         1 QQP       0.127000
     42 H12          2.9290    31.5720    14.7350 hn         1 QQP       0.372500
     43 H13          6.2250    35.2830    11.0160 hn         1 QQP       0.508000
     44 H14          4.6870    36.0150    11.3210 hn         1 QQP       0.508000
     45 H15          2.7500    28.7930    17.8890 ho         1 QQP       0.528000
     46 C09          0.8110    31.5840    13.1340 c3         1 QQP       0.064600
     47 O01          6.4590    28.5460    18.5000 o          1 QQP      -0.496000
     48 C29          8.2080    29.4640    14.0320 c3         1 QQP       0.355300
@<TRIPOS>BOND
     1     1     2 1   
     2     1    15 2   
     3     2     4 ar  
     4     2    16 ar  
     5     3    25 ar  
     6     3    26 ar  
     7     3    31 1   
     8     4    26 ar  
     9     4    27 1   
    10     5     9 1   
    11     5    17 1   
    12     5    28 2   
    13     6     7 ar  
    14     6    17 ar  
    15     6    32 1   
    16     7    18 ar  
    17     7    33 1   
    18     8    18 ar  
    19     8    19 ar  
    20     8    34 1   
    21     9    10 1   
    22     9    35 1   
    23    10    11 1   
    24    10    47 2   
    25    11    12 2   
    26    11    29 1   
    27    12    13 1   
    28    12    28 1   
    29    13    23 1   
    30    13    30 2   
    31    14    23 1   
    32    14    36 1   
    33    14    37 1   
    34    14    46 1   
    35    15    24 1   
    36    15    40 1   
    37    16    24 1   
    38    16    25 ar  
    39    17    19 ar  
    40    18    41 1   
    41    19    48 1   
    42    20    48 1   
    43    21    48 1   
    44    22    48 1   
    45    23    42 1   
    46    24    46 1   
    47    27    43 1   
    48    27    44 1   
    49    29    45 1   
    50    38    46 1   
    51    39    46 1   
@<TRIPOS>SUBSTRUCTURE
     1 QQP         1 TEMP              0 ****  ****    0 ROOT
