@<TRIPOS>MOLECULE
QQP
   48    51     1     0     0
SMALL
abcg2


@<TRIPOS>ATOM
      1 N12          1.7830    34.9470    12.8000 nc         1 QQP      -0.547100
      2 C13          3.0090    34.4010    12.5150 ca         1 QQP      -0.097600
      3 C16          5.0610    32.8040    11.9930 ca         1 QQP       0.189900
      4 C18          4.2830    34.9520    12.2820 ca         1 QQP       0.454900
      5 C22          6.2610    30.7110    15.7590 cc         1 QQP       0.503500
      6 C24          7.2540    32.5220    14.4440 ca         1 QQP      -0.081000
      7 C25          8.2040    33.0540    13.5860 ca         1 QQP      -0.076000
      8 C27          9.2750    30.9090    13.4580 ca         1 QQP      -0.067000
      9 N33          6.6500    30.3660    17.0180 ns         1 QQP      -0.408400
     10 C02          5.7980    29.9370    18.0090 c          1 QQP       0.552200
     11 C03          4.4010    29.9130    17.5820 cc         1 QQP       0.096900
     12 C05          4.0940    30.2970    16.3060 cd         1 QQP      -0.077600
     13 C06          2.6740    30.3120    15.8800 c          1 QQP       0.632300
     14 C08          1.0770    30.7750    14.1190 c3         1 QQP       0.088000
     15 C11          0.9900    33.9190    12.8980 cd         1 QQP       0.408700
     16 C14          2.9230    33.0200    12.4460 ca         1 QQP       0.119500
     17 C23          7.3090    31.1880    14.8250 ca         1 QQP      -0.091900
     18 C26          9.2190    32.2480    13.0990 ca         1 QQP      -0.103000
     19 C28          8.3260    30.3710    14.3170 ca         1 QQP      -0.176300
     20 F30          8.9630    28.7360    15.8900 f          1 QQP      -0.109000
     21 F31          7.1990    28.3430    14.7230 f          1 QQP      -0.109000
     22 F32          9.1420    28.2180    13.8140 f          1 QQP      -0.109000
     23 N07          2.4300    30.6690    14.6250 ns         1 QQP      -0.465900
     24 N10          1.6170    32.7240    12.6900 na         1 QQP      -0.283300
     25 N15          3.9180    32.1710    12.1960 nb         1 QQP      -0.228000
     26 N17          5.2910    34.1130    12.0180 nb         1 QQP      -0.316000
     27 N19          4.5210    36.2640    12.3190 nv         1 QQP      -1.064900
     28 N21          5.0320    30.6900    15.3950 nd         1 QQP      -0.584300
     29 O04          3.5330    29.5280    18.4990 oh         1 QQP      -0.499100
     30 O20          1.7810    30.0080    16.6850 o          1 QQP      -0.665100
     31 H1           5.9210    32.1800    11.7790 h5         1 QQP       0.048100
     32 H2           6.4580    33.1480    14.8260 ha         1 QQP       0.136000
     33 H3           8.1360    34.0920    13.2910 ha         1 QQP       0.134000
     34 H4          10.0620    30.2910    13.0500 ha         1 QQP       0.136000
     35 H5           7.6240    30.4630    17.2790 hn         1 QQP       0.341500
     36 H6           0.4770    31.3740    14.8070 h1         1 QQP       0.063200
     37 H7           0.6080    29.7900    14.0540 h1         1 QQP       0.063200
     38 H8           0.0050    31.4550    12.4060 h1         1 QQP       0.076700
     39 H9           1.5740    30.7740    12.0160 h1         1 QQP       0.076700
     40 H10         -0.0680    33.9650    13.1110 h5         1 QQP       0.068800
     41 H11          9.9650    32.6530    12.4300 ha         1 QQP       0.127000
     42 H12          3.2230    30.8490    14.0180 hn         1 QQP       0.372500
     43 H13          5.4400    36.6190    12.1190 hn         1 QQP       0.508000
     44 H14          3.7820    36.9220    12.4930 hn         1 QQP       0.508000
     45 H15          2.6390    29.5990    18.0780 ho         1 QQP       0.528000
     46 C09          1.0420    31.3960    12.7350 c3         1 QQP       0.064600
     47 O01          6.1840    29.6310    19.1200 o          1 QQP      -0.496000
     48 C29          8.4080    28.9170    14.6800 c3         1 QQP       0.355300
@<TRIPOS>BOND
     1     1     2 1   
     2     1    15 2   
     3     2     4 ar  
     4     2    16 ar  
     5     3    25 ar  
     6     3    26 ar  
     7     3    31 1   
     8     4    26 ar  
     9     4    27 1   
    10     5     9 1   
    11     5    17 1   
    12     5    28 2   
    13     6     7 ar  
    14     6    17 ar  
    15     6    32 1   
    16     7    18 ar  
    17     7    33 1   
    18     8    18 ar  
    19     8    19 ar  
    20     8    34 1   
    21     9    10 1   
    22     9    35 1   
    23    10    11 1   
    24    10    47 2   
    25    11    12 2   
    26    11    29 1   
    27    12    13 1   
    28    12    28 1   
    29    13    23 1   
    30    13    30 2   
    31    14    23 1   
    32    14    36 1   
    33    14    37 1   
    34    14    46 1   
    35    15    24 1   
    36    15    40 1   
    37    16    24 1   
    38    16    25 ar  
    39    17    19 ar  
    40    18    41 1   
    41    19    48 1   
    42    20    48 1   
    43    21    48 1   
    44    22    48 1   
    45    23    42 1   
    46    24    46 1   
    47    27    43 1   
    48    27    44 1   
    49    29    45 1   
    50    38    46 1   
    51    39    46 1   
@<TRIPOS>SUBSTRUCTURE
     1 QQP         1 TEMP              0 ****  ****    0 ROOT
