@<TRIPOS>MOLECULE
QQQ
   27    28     1     0     0
SMALL
abcg2


@<TRIPOS>ATOM
      1 O11         -2.6620     0.2120    -1.2140 o          1 QQQ      -0.677867
      2 S10         -2.3100    -0.4980     0.0250 s6         1 QQQ       1.206900
      3 O13         -2.6590     0.2340     1.2510 o          1 QQQ      -0.677867
      4 O12         -2.6990    -1.9090     0.0370 o          1 QQQ      -0.677867
      5 C8          -0.5120    -0.5270     0.0240 cc         1 QQQ       0.322200
      6 N7           0.1640    -1.6370     0.0510 nd         1 QQQ      -0.525100
      7 C3           1.4790    -1.2460     0.0420 ca         1 QQQ       0.057400
      8 C4           2.6350    -2.0270     0.0610 ca         1 QQQ      -0.051000
      9 C5           3.8540    -1.3800     0.0450 ca         1 QQQ      -0.161000
     10 C6           3.9290     0.0210     0.0080 ca         1 QQQ      -0.122000
     11 C1           2.7950     0.8110    -0.0110 ca         1 QQQ      -0.114000
     12 C2           1.5630     0.1560     0.0070 ca         1 QQQ      -0.082200
     13 N9           0.2600     0.5970    -0.0030 na         1 QQQ      -0.132600
     14 C14         -0.1910     1.9900    -0.0320 c3         1 QQQ       0.096300
     15 C15          0.2450     2.7320     1.2240 c3         1 QQQ      -0.101600
     16 C16          0.2350     2.6740    -1.3230 c3         1 QQQ      -0.101600
     17 H4           2.5700    -3.1080     0.0880 ha         1 QQQ       0.116000
     18 H5           4.7690    -1.9590     0.0600 ha         1 QQQ       0.092000
     19 H6           4.9010     0.4980    -0.0050 ha         1 QQQ       0.089000
     20 H1           2.8860     1.8870    -0.0390 ha         1 QQQ       0.104000
     21 H14         -1.2760     1.9630    -0.0270 h1         1 QQQ       0.101700
     22 H15          1.3270     2.8250     1.3080 hc         1 QQQ       0.040033
     23 H15A        -0.1720     3.7390     1.2100 hc         1 QQQ       0.040033
     24 H15B        -0.1260     2.2270     2.1160 hc         1 QQQ       0.040033
     25 H16         -0.1750     3.6830    -1.3500 hc         1 QQQ       0.040033
     26 H16A         1.3170     2.7560    -1.4220 hc         1 QQQ       0.040033
     27 H16B        -0.1480     2.1330    -2.1880 hc         1 QQQ       0.040033
@<TRIPOS>BOND
     1     1     2 1   
     2     2     3 1   
     3     2     4 1   
     4     2     5 1   
     5     5     6 2   
     6     5    13 1   
     7     6     7 1   
     8     7     8 ar  
     9     7    12 ar  
    10     8     9 ar  
    11     8    17 1   
    12     9    10 ar  
    13     9    18 1   
    14    10    11 ar  
    15    10    19 1   
    16    11    12 ar  
    17    11    20 1   
    18    12    13 1   
    19    13    14 1   
    20    14    15 1   
    21    14    16 1   
    22    14    21 1   
    23    15    22 1   
    24    15    23 1   
    25    15    24 1   
    26    16    25 1   
    27    16    26 1   
    28    16    27 1   
@<TRIPOS>SUBSTRUCTURE
     1 QQQ         1 TEMP              0 ****  ****    0 ROOT
