@<TRIPOS>MOLECULE
QQQ
   27    28     1     0     0
SMALL
No Charge or Current Charge


@<TRIPOS>ATOM
      1 O11         -2.7740     0.1790    -1.2110 o          1 QQQ      -0.677867
      2 S10         -2.4720    -0.5610     0.0280 s6         1 QQQ       1.206900
      3 O13         -2.7720     0.2350     1.2330 o          1 QQQ      -0.677867
      4 O12         -2.8590    -1.9840     0.0610 o          1 QQQ      -0.677867
      5 C8          -0.5770    -0.5780     0.0270 cc         1 QQQ       0.322200
      6 N7           0.1890    -1.7080     0.0510 nd         1 QQQ      -0.525100
      7 C3           1.4990    -1.2500     0.0400 ca         1 QQQ       0.057400
      8 C4           2.6660    -2.0290     0.0560 ca         1 QQQ      -0.051000
      9 C5           3.9140    -1.3720     0.0400 ca         1 QQQ      -0.161000
     10 C6           3.9750     0.0390     0.0080 ca         1 QQQ      -0.122000
     11 C1           2.7900     0.8020    -0.0080 ca         1 QQQ      -0.114000
     12 C2           1.5610     0.1160     0.0090 ca         1 QQQ      -0.082200
     13 N9           0.2600     0.5600    -0.0000 na         1 QQQ      -0.132600
     14 C14         -0.1430     1.9920    -0.0320 c3         1 QQQ       0.096300
     15 C15          0.2730     2.7660     1.2400 c3         1 QQQ      -0.101600
     16 C16          0.2710     2.7080    -1.3390 c3         1 QQQ      -0.101600
     17 H4           2.6070    -3.1140     0.0810 ha         1 QQQ       0.116000
     18 H5           4.8320    -1.9550     0.0520 ha         1 QQQ       0.092000
     19 H6           4.9400     0.5400    -0.0040 ha         1 QQQ       0.089000
     20 H1           2.8470     1.8850    -0.0330 ha         1 QQQ       0.104000
     21 H14         -1.2390     2.0130    -0.0320 h1         1 QQQ       0.101700
     22 H15          1.3600     2.8670     1.3230 hc         1 QQQ       0.040033
     23 H15A        -0.1580     3.7740     1.2310 hc         1 QQQ       0.040033
     24 H15B        -0.0920     2.2510     2.1370 hc         1 QQQ       0.040033
     25 H16         -0.1610     3.7150    -1.3750 hc         1 QQQ       0.040033
     26 H16A         1.3570     2.8050    -1.4280 hc         1 QQQ       0.040033
     27 H16B        -0.0960     2.1530    -2.2110 hc         1 QQQ       0.040033
@<TRIPOS>BOND
     1     1     2 1   
     2     2     3 1   
     3     2     4 1   
     4     2     5 1   
     5     5     6 2   
     6     5    13 1   
     7     6     7 1   
     8     7     8 ar  
     9     7    12 ar  
    10     8     9 ar  
    11     8    17 1   
    12     9    10 ar  
    13     9    18 1   
    14    10    11 ar  
    15    10    19 1   
    16    11    12 ar  
    17    11    20 1   
    18    12    13 1   
    19    13    14 1   
    20    14    15 1   
    21    14    16 1   
    22    14    21 1   
    23    15    22 1   
    24    15    23 1   
    25    15    24 1   
    26    16    25 1   
    27    16    26 1   
    28    16    27 1   
@<TRIPOS>SUBSTRUCTURE
     1 QQQ         1 TEMP              0 ****  ****    0 ROOT
