@<TRIPOS>MOLECULE
QQR
   48    51     1     0     0
SMALL
abcg2


@<TRIPOS>ATOM
      1 C02        -43.5770   -30.2070     2.8170 c          1 QQR       0.720000
      2 C03        -44.4020   -29.8840     1.5440 c5         1 QQR      -0.202700
      3 C04        -43.8850   -30.7440     0.3550 c5         1 QQR      -0.005100
      4 C05        -44.8320   -31.9150     0.3370 ca         1 QQR      -0.087300
      5 C06        -44.6910   -33.1500    -0.2850 ca         1 QQR       0.127100
      6 C08        -45.7040   -34.1030    -0.1520 ca         1 QQR      -0.211000
      7 C09        -46.8460   -33.8120     0.5900 ca         1 QQR      -0.093000
      8 C10        -47.0010   -32.5720     1.2070 ca         1 QQR      -0.118000
      9 C11        -45.9840   -31.6390     1.0650 ca         1 QQR      -0.045300
     10 C12        -45.9150   -30.2240     1.6030 c5         1 QQR       0.164000
     11 C15        -48.1830   -29.4980     4.5460 ca         1 QQR      -0.216600
     12 C16        -49.5330   -29.3070     4.8170 ca         1 QQR       0.406900
     13 C18        -49.2230   -29.3300     7.0810 ca         1 QQR       0.497900
     14 C20        -50.9430   -28.7620     8.8070 c          1 QQR       0.666100
     15 C22        -52.3680   -28.5470    10.7710 cx         1 QQR       0.069700
     16 C23        -53.0390   -29.3840    11.8170 cx         1 QQR      -0.138400
     17 C24        -53.7510   -29.0830    10.5240 cx         1 QQR      -0.138400
     18 C26        -47.8390   -29.5130     6.9210 ca         1 QQR      -0.232000
     19 C27        -47.3250   -29.6050     5.6470 ca         1 QQR      -0.009000
     20 N13        -46.5050   -30.0470     2.9100 ns         1 QQR      -0.474900
     21 N17        -50.0550   -29.2370     6.0430 nb         1 QQR      -0.700000
     22 N19        -49.7300   -29.2960     8.3710 ns         1 QQR      -0.349900
     23 N21        -51.2570   -29.1270    10.0790 ns         1 QQR      -0.513900
     24 O01        -42.4100   -29.7510     2.8280 o          1 QQR      -0.729500
     25 O07        -43.5490   -33.3880    -0.9990 oh         1 QQR      -0.539100
     26 O25        -51.6480   -28.0260     8.1300 o          1 QQR      -0.576100
     27 O28        -48.5060   -29.2390     2.2040 o          1 QQR      -0.660100
     28 O29        -44.1040   -30.9000     3.7340 o          1 QQR      -0.729500
     29 H031       -44.2590   -28.8230     1.3410 hc         1 QQR       0.054700
     30 H042       -43.9510   -30.1840    -0.5830 hc         1 QQR       0.052700
     31 H041       -42.8420   -31.0320     0.4810 hc         1 QQR       0.052700
     32 H081       -45.5900   -35.0710    -0.6280 ha         1 QQR       0.093000
     33 H091       -47.6180   -34.5650     0.6850 ha         1 QQR       0.095000
     34 H101       -47.8880   -32.3470     1.7870 ha         1 QQR       0.118000
     35 H121       -46.4530   -29.5650     0.9180 h1         1 QQR       0.063700
     36 H161       -50.2300   -29.2240     3.9920 h4         1 QQR       0.042100
     37 H221       -52.2790   -27.4840    10.9630 h1         1 QQR       0.084700
     38 H232       -52.6640   -30.3890    11.9590 hc         1 QQR       0.076700
     39 H231       -53.3670   -28.8870    12.7200 hc         1 QQR       0.076700
     40 H241       -53.8400   -29.8860     9.8050 hc         1 QQR       0.076700
     41 H242       -54.5720   -28.3780    10.5360 hc         1 QQR       0.076700
     42 H261       -47.1960   -29.5740     7.7890 ha         1 QQR       0.116000
     43 H271       -46.2580   -29.7360     5.5210 ha         1 QQR       0.155000
     44 H131       -45.9100   -30.4000     3.6550 hn         1 QQR       0.376500
     45 H191       -49.0930   -29.6150     9.0850 hn         1 QQR       0.143000
     46 H211       -50.6330   -29.7240    10.5990 hn         1 QQR       0.310500
     47 H071       -43.5680   -34.2860    -1.3550 ho         1 QQR       0.444000
     48 C14        -47.7460   -29.5820     3.1200 c          1 QQR       0.611700
@<TRIPOS>BOND
     1     1     2 1   
     2     1    24 1   
     3     1    28 1   
     4     2     3 1   
     5     2    10 1   
     6     2    29 1   
     7     3     4 1   
     8     3    30 1   
     9     3    31 1   
    10     4     5 ar  
    11     4     9 ar  
    12     5     6 ar  
    13     5    25 1   
    14     6     7 ar  
    15     6    32 1   
    16     7     8 ar  
    17     7    33 1   
    18     8     9 ar  
    19     8    34 1   
    20     9    10 1   
    21    10    20 1   
    22    10    35 1   
    23    11    12 ar  
    24    11    19 ar  
    25    11    48 1   
    26    12    21 ar  
    27    12    36 1   
    28    13    18 ar  
    29    13    21 ar  
    30    13    22 1   
    31    14    22 1   
    32    14    23 1   
    33    14    26 2   
    34    15    16 1   
    35    15    17 1   
    36    15    23 1   
    37    15    37 1   
    38    16    17 1   
    39    16    38 1   
    40    16    39 1   
    41    17    40 1   
    42    17    41 1   
    43    18    19 ar  
    44    18    42 1   
    45    19    43 1   
    46    20    44 1   
    47    20    48 1   
    48    22    45 1   
    49    23    46 1   
    50    25    47 1   
    51    27    48 2   
@<TRIPOS>SUBSTRUCTURE
     1 QQR         1 TEMP              0 ****  ****    0 ROOT
