@<TRIPOS>MOLECULE
QQR
   48    51     1     0     0
SMALL
No Charge or Current Charge


@<TRIPOS>ATOM
      1 C02        -44.4870   -29.7810     2.9370 c          1 QQR       0.720000
      2 C03        -45.0880   -29.7350     1.5020 c5         1 QQR      -0.202700
      3 C04        -44.0460   -30.3600     0.4870 c5         1 QQR      -0.005100
      4 C05        -44.5840   -31.7610     0.3250 ca         1 QQR      -0.087300
      5 C06        -43.9180   -32.8630    -0.2400 ca         1 QQR       0.127100
      6 C08        -44.5810   -34.1020    -0.3130 ca         1 QQR      -0.211000
      7 C09        -45.8990   -34.2280     0.1720 ca         1 QQR      -0.093000
      8 C10        -46.5550   -33.1150     0.7320 ca         1 QQR      -0.118000
      9 C11        -45.8750   -31.8870     0.8030 ca         1 QQR      -0.045300
     10 C12        -46.4210   -30.5890     1.3420 c5         1 QQR       0.164000
     11 C15        -48.4810   -29.7830     4.4420 ca         1 QQR      -0.216600
     12 C16        -49.3990   -28.8060     4.8710 ca         1 QQR       0.406900
     13 C18        -49.5810   -29.7520     6.9700 ca         1 QQR       0.497900
     14 C20        -50.6350   -28.6900     8.9890 c          1 QQR       0.666100
     15 C22        -51.8050   -28.2350    11.1340 cx         1 QQR       0.069700
     16 C23        -52.7280   -28.8330    12.1670 cx         1 QQR      -0.138400
     17 C24        -53.2820   -27.9330    11.0900 cx         1 QQR      -0.138400
     18 C26        -48.6980   -30.7850     6.6310 ca         1 QQR      -0.232000
     19 C27        -48.1230   -30.8050     5.3510 ca         1 QQR      -0.009000
     20 N13        -47.0560   -30.6750     2.6600 ns         1 QQR      -0.474900
     21 N17        -49.9520   -28.7910     6.1060 nb         1 QQR      -0.700000
     22 N19        -50.2240   -29.7430     8.2130 ns         1 QQR      -0.349900
     23 N21        -51.2740   -29.1140    10.1280 ns         1 QQR      -0.513900
     24 O01        -44.3300   -28.7240     3.5310 o          1 QQR      -0.729500
     25 O07        -42.6470   -32.7430    -0.7190 oh         1 QQR      -0.539100
     26 O25        -50.4490   -27.5100     8.7350 o          1 QQR      -0.576100
     27 O28        -48.2740   -28.7830     2.2910 o          1 QQR      -0.660100
     28 O29        -44.1650   -30.8490     3.4370 o          1 QQR      -0.729500
     29 H031       -45.2820   -28.6840     1.2620 hc         1 QQR       0.054700
     30 H042       -44.0540   -29.8270    -0.4710 hc         1 QQR       0.052700
     31 H041       -43.0170   -30.3340     0.8630 hc         1 QQR       0.052700
     32 H081       -44.0850   -34.9670    -0.7470 ha         1 QQR       0.093000
     33 H091       -46.4130   -35.1860     0.1120 ha         1 QQR       0.095000
     34 H101       -47.5740   -33.2040     1.1000 ha         1 QQR       0.118000
     35 H121       -47.0810   -30.1490     0.5810 h1         1 QQR       0.063700
     36 H161       -49.7170   -28.0020     4.2070 h4         1 QQR       0.042100
     37 H221       -51.1240   -27.4430    11.4500 h1         1 QQR       0.084700
     38 H232       -52.9510   -29.8950    12.1050 hc         1 QQR       0.076700
     39 H231       -52.6730   -28.4380    13.1790 hc         1 QQR       0.076700
     40 H241       -53.8730   -28.3900    10.2990 hc         1 QQR       0.076700
     41 H242       -53.5990   -26.9330    11.3760 hc         1 QQR       0.076700
     42 H261       -48.4590   -31.5580     7.3550 ha         1 QQR       0.116000
     43 H271       -47.4270   -31.6010     5.0940 ha         1 QQR       0.155000
     44 H131       -46.8060   -31.3780     3.3420 hn         1 QQR       0.376500
     45 H191       -50.3930   -30.6620     8.5960 hn         1 QQR       0.143000
     46 H211       -51.3680   -30.1140    10.2470 hn         1 QQR       0.310500
     47 H071       -42.3680   -33.6160    -1.0660 ho         1 QQR       0.444000
     48 C14        -47.9400   -29.6880     3.0450 c          1 QQR       0.611700
@<TRIPOS>BOND
     1     1     2 1   
     2     1    24 1   
     3     1    28 1   
     4     2     3 1   
     5     2    10 1   
     6     2    29 1   
     7     3     4 1   
     8     3    30 1   
     9     3    31 1   
    10     4     5 ar  
    11     4     9 ar  
    12     5     6 ar  
    13     5    25 1   
    14     6     7 ar  
    15     6    32 1   
    16     7     8 ar  
    17     7    33 1   
    18     8     9 ar  
    19     8    34 1   
    20     9    10 1   
    21    10    20 1   
    22    10    35 1   
    23    11    12 ar  
    24    11    19 ar  
    25    11    48 1   
    26    12    21 ar  
    27    12    36 1   
    28    13    18 ar  
    29    13    21 ar  
    30    13    22 1   
    31    14    22 1   
    32    14    23 1   
    33    14    26 2   
    34    15    16 1   
    35    15    17 1   
    36    15    23 1   
    37    15    37 1   
    38    16    17 1   
    39    16    38 1   
    40    16    39 1   
    41    17    40 1   
    42    17    41 1   
    43    18    19 ar  
    44    18    42 1   
    45    19    43 1   
    46    20    44 1   
    47    20    48 1   
    48    22    45 1   
    49    23    46 1   
    50    25    47 1   
    51    27    48 2   
@<TRIPOS>SUBSTRUCTURE
     1 QQR         1 TEMP              0 ****  ****    0 ROOT
