@<TRIPOS>MOLECULE
QQS
   87    91     1     0     0
SMALL
No Charge or Current Charge


@<TRIPOS>ATOM
      1 C4          21.6220    15.7280    18.9900 ca         1 QQS       0.091000
      2 C5          22.0770    14.8780    17.9600 ca         1 QQS      -0.198000
      3 C6          21.2260    14.6890    16.8440 ca         1 QQS       0.424900
      4 N1          20.0180    15.2770    16.7780 nb         1 QQS      -0.301000
      5 N3          20.4150    16.3210    18.9050 nb         1 QQS      -0.224000
      6 CBE         28.0990    18.9630    22.7520 c5         1 QQS       0.159300
      7 CBF         27.9240    20.4760    23.0170 c5         1 QQS      -0.079400
      8 CBG         26.4710    20.7520    22.5240 c5         1 QQS      -0.079400
      9 CBH         25.8520    19.3350    22.3420 c5         1 QQS       0.159300
     10 NBD         26.7600    18.4670    23.1280 n3         1 QQS      -0.732600
     11 CBC         26.5800    17.0020    22.9810 c3         1 QQS       0.175800
     12 CBB         25.2230    16.4450    23.4770 c3         1 QQS      -0.070400
     13 CBA         24.0910    16.4370    22.4270 c3         1 QQS       0.160600
     14 CAY         23.7010    15.3270    20.2380 ca         1 QQS       0.161100
     15 CBI         22.4360    15.9480    20.1120 ca         1 QQS      -0.210000
     16 CAV         24.1510    14.4540    19.2020 ca         1 QQS       0.049100
     17 OAW         25.3610    13.7680    19.1930 os         1 QQS      -0.353100
     18 CAX         26.3640    13.8620    20.2210 c3         1 QQS       0.148900
     19 CAU         23.3290    14.2400    18.0820 ca         1 QQS      -0.054000
     20 C2          19.6680    16.0640    17.8110 ca         1 QQS       0.191300
     21 CAL         18.2890    16.7400    17.7210 c6         1 QQS      -0.101000
     22 CAM         18.4060    18.2710    17.4310 c6         1 QQS      -0.066400
     23 CAN         17.1520    19.0830    17.8690 c6         1 QQS      -0.072400
     24 CAO         15.8650    18.2260    17.8160 c6         1 QQS      -0.075400
     25 CAP         15.9530    17.0020    18.7720 c6         1 QQS      -0.072400
     26 CAQ         17.4060    16.4810    18.9740 c6         1 QQS      -0.066400
     27 NAH         21.5720    13.8880    15.7340 nh         1 QQS      -0.786300
     28 CBJ         22.7050    14.2780    14.8600 c3         1 QQS       0.212100
     29 CAG         20.6410    12.8080    15.2930 c6         1 QQS       0.232500
     30 CBK         21.3800    11.4730    15.0430 c6         1 QQS      -0.088400
     31 CBL         20.3780    10.3730    14.6290 c6         1 QQS       0.176300
     32 CAF         19.8300    13.2010    14.0350 c6         1 QQS      -0.088400
     33 CAE         18.8610    12.0620    13.6500 c6         1 QQS       0.176300
     34 NAD         19.5880    10.7780    13.4250 n3         1 QQS      -0.742600
     35 CAB         18.7300     9.7060    12.8430 c3         1 QQS       0.188500
     36 CAC         17.6150     9.1950    13.7900 c3         1 QQS      -0.104600
     37 CAA         19.5560     8.5260    12.2820 c3         1 QQS      -0.104600
     38 H2          28.8990    18.5270    23.3650 h1         1 QQS       0.034950
     39 H3          28.6720    21.0790    22.4890 hc         1 QQS       0.046700
     40 H4          28.0230    20.6970    24.0860 hc         1 QQS       0.046700
     41 H5          26.4540    21.3110    21.5820 hc         1 QQS       0.046700
     42 H6          25.9120    21.3420    23.2600 hc         1 QQS       0.046700
     43 H7          24.8180    19.3020    22.7110 h1         1 QQS       0.034950
     44 H8          25.8470    19.0450    21.2820 h1         1 QQS       0.034950
     45 H10         26.7420    16.6990    21.9370 h1         1 QQS       0.036200
     46 H11         27.3620    16.5050    23.5710 h1         1 QQS       0.036200
     47 H12         24.8990    17.0100    24.3590 hc         1 QQS       0.056700
     48 H13         25.3760    15.4130    23.8130 hc         1 QQS       0.056700
     49 H14         23.9090    17.4500    22.0520 h1         1 QQS       0.047700
     50 H15         23.1700    16.0730    22.9000 h1         1 QQS       0.047700
     51 H16         22.0590    16.6090    20.8850 ha         1 QQS       0.139000
     52 H17         27.2240    13.2290    19.9690 h1         1 QQS       0.036700
     53 H18         26.7250    14.8930    20.3230 h1         1 QQS       0.036700
     54 H19         25.9690    13.5200    21.1870 h1         1 QQS       0.036700
     55 H20         23.6780    13.5600    17.3100 ha         1 QQS       0.128000
     56 H21         17.7550    16.2900    16.8710 hc         1 QQS       0.066700
     57 H22         18.5830    18.4150    16.3570 hc         1 QQS       0.047950
     58 H23         19.2850    18.6920    17.9380 hc         1 QQS       0.047950
     59 H24         17.0430    19.9720    17.2330 hc         1 QQS       0.037950
     60 H25         17.2930    19.4540    18.8940 hc         1 QQS       0.037950
     61 H26         14.9900    18.8380    18.0730 hc         1 QQS       0.037200
     62 H27         15.7060    17.8790    16.7860 hc         1 QQS       0.037200
     63 H28         15.5300    17.2650    19.7520 hc         1 QQS       0.037950
     64 H29         15.3210    16.1950    18.3770 hc         1 QQS       0.037950
     65 H30         17.3830    15.4080    19.2100 hc         1 QQS       0.047950
     66 H31         17.8520    16.9780    19.8470 hc         1 QQS       0.047950
     67 H32         23.2020    15.1760    15.2530 h1         1 QQS       0.044033
     68 H33         23.4530    13.4760    14.8100 h1         1 QQS       0.044033
     69 H34         22.3610    14.5080    13.8440 h1         1 QQS       0.044033
     70 H35         19.9150    12.6180    16.1010 h1         1 QQS       0.085700
     71 H36         21.9140    11.1640    15.9510 hc         1 QQS       0.052700
     72 H37         22.1320    11.5890    14.2520 hc         1 QQS       0.052700
     73 H38         19.7080    10.1670    15.4760 h1         1 QQS       0.033700
     74 H39         20.9470     9.4530    14.4350 h1         1 QQS       0.033700
     75 H40         20.4990    13.4030    13.1890 hc         1 QQS       0.052700
     76 H41         19.2620    14.1210    14.2200 hc         1 QQS       0.052700
     77 H42         18.3170    12.3570    12.7410 h1         1 QQS       0.033700
     78 H43         18.1170    11.9490    14.4520 h1         1 QQS       0.033700
     79 H45         18.2150    10.1370    11.9720 h1         1 QQS       0.051700
     80 H46         16.9630    10.0130    14.1170 hc         1 QQS       0.037533
     81 H47         16.9870     8.4600    13.2740 hc         1 QQS       0.037533
     82 H48         18.0370     8.7110    14.6780 hc         1 QQS       0.037533
     83 H49         20.3590     8.8920    11.6320 hc         1 QQS       0.037533
     84 H50         20.0030     7.9300    13.0860 hc         1 QQS       0.037533
     85 H51         18.9170     7.8620    11.6880 hc         1 QQS       0.037533
     86 OAZ         24.4850    15.5600    21.3560 os         1 QQS      -0.345100
     87 H1          28.3240    18.7620    21.6940 h1         1 QQS       0.034950
@<TRIPOS>BOND
     1     1     2 ar  
     2     1     5 ar  
     3     1    15 ar  
     4     2     3 ar  
     5     2    19 ar  
     6     3     4 ar  
     7     3    27 1   
     8     4    20 ar  
     9     5    20 ar  
    10     6     7 1   
    11     6    10 1   
    12     6    38 1   
    13     6    87 1   
    14     7     8 1   
    15     7    39 1   
    16     7    40 1   
    17     8     9 1   
    18     8    41 1   
    19     8    42 1   
    20     9    10 1   
    21     9    43 1   
    22     9    44 1   
    23    10    11 1   
    24    11    12 1   
    25    11    45 1   
    26    11    46 1   
    27    12    13 1   
    28    12    47 1   
    29    12    48 1   
    30    13    49 1   
    31    13    50 1   
    32    13    86 1   
    33    14    15 ar  
    34    14    16 ar  
    35    14    86 1   
    36    15    51 1   
    37    16    17 1   
    38    16    19 ar  
    39    17    18 1   
    40    18    52 1   
    41    18    53 1   
    42    18    54 1   
    43    19    55 1   
    44    20    21 1   
    45    21    22 1   
    46    21    26 1   
    47    21    56 1   
    48    22    23 1   
    49    22    57 1   
    50    22    58 1   
    51    23    24 1   
    52    23    59 1   
    53    23    60 1   
    54    24    25 1   
    55    24    61 1   
    56    24    62 1   
    57    25    26 1   
    58    25    63 1   
    59    25    64 1   
    60    26    65 1   
    61    26    66 1   
    62    27    28 1   
    63    27    29 1   
    64    28    67 1   
    65    28    68 1   
    66    28    69 1   
    67    29    30 1   
    68    29    32 1   
    69    29    70 1   
    70    30    31 1   
    71    30    71 1   
    72    30    72 1   
    73    31    34 1   
    74    31    73 1   
    75    31    74 1   
    76    32    33 1   
    77    32    75 1   
    78    32    76 1   
    79    33    34 1   
    80    33    77 1   
    81    33    78 1   
    82    34    35 1   
    83    35    36 1   
    84    35    37 1   
    85    35    79 1   
    86    36    80 1   
    87    36    81 1   
    88    36    82 1   
    89    37    83 1   
    90    37    84 1   
    91    37    85 1   
@<TRIPOS>SUBSTRUCTURE
     1 QQS         1 TEMP              0 ****  ****    0 ROOT
