@<TRIPOS>MOLECULE
QQS
   87    91     1     0     0
SMALL
abcg2


@<TRIPOS>ATOM
      1 C4          21.6370    15.6210    19.4700 ca         1 QQS       0.091000
      2 C5          22.1210    14.5440    18.6810 ca         1 QQS      -0.198000
      3 C6          21.2970    14.1700    17.5580 ca         1 QQS       0.424900
      4 N1          20.0780    14.7050    17.4340 nb         1 QQS      -0.301000
      5 N3          20.4250    16.2030    19.2380 nb         1 QQS      -0.224000
      6 CBE         27.6340    19.4930    22.6010 c5         1 QQS       0.159300
      7 CBF         27.5560    20.4880    21.4390 c5         1 QQS      -0.079400
      8 CBG         26.7170    19.7510    20.3610 c5         1 QQS      -0.079400
      9 CBH         26.3700    18.4050    21.0080 c5         1 QQS       0.159300
     10 NBD         26.4260    18.6770    22.4470 n3         1 QQS      -0.732600
     11 CBC         26.3930    17.4950    23.3060 c3         1 QQS       0.175800
     12 CBB         24.9990    17.1580    23.8390 c3         1 QQS      -0.070400
     13 CBA         23.9370    16.9300    22.7870 c3         1 QQS       0.160600
     14 CAY         23.5660    15.4570    20.9350 ca         1 QQS       0.161100
     15 CBI         22.3930    16.0810    20.5710 ca         1 QQS      -0.210000
     16 CAV         24.0110    14.3260    20.1920 ca         1 QQS       0.049100
     17 OAW         25.1230    13.6330    20.6070 os         1 QQS      -0.353100
     18 CAX         26.3720    14.2380    20.2340 c3         1 QQS       0.148900
     19 CAU         23.3050    13.8950    19.1030 ca         1 QQS      -0.054000
     20 C2          19.6930    15.6790    18.2780 ca         1 QQS       0.191300
     21 CAL         18.2900    16.2060    18.0890 c6         1 QQS      -0.101000
     22 CAM         18.2650    17.7270    17.8080 c6         1 QQS      -0.066400
     23 CAN         16.9260    18.3760    18.2030 c6         1 QQS      -0.072400
     24 CAO         15.7680    17.3940    18.0350 c6         1 QQS      -0.075400
     25 CAP         15.9240    16.1980    18.9950 c6         1 QQS      -0.072400
     26 CAQ         17.4000    15.8800    19.2990 c6         1 QQS      -0.066400
     27 NAH         21.6790    13.2760    16.6070 nh         1 QQS      -0.786300
     28 CBJ         23.0760    13.0400    16.2570 c3         1 QQS       0.212100
     29 CAG         20.6740    12.7300    15.6800 c6         1 QQS       0.232500
     30 CBK         20.8860    11.2380    15.4260 c6         1 QQS      -0.088400
     31 CBL         19.8060    10.7160    14.4820 c6         1 QQS       0.176300
     32 CAF         20.6050    13.4910    14.3540 c6         1 QQS      -0.088400
     33 CAE         19.5510    12.8690    13.4440 c6         1 QQS       0.176300
     34 NAD         19.8260    11.4530    13.2210 n3         1 QQS      -0.742600
     35 CAB         19.0100    10.8680    12.1410 c3         1 QQS       0.188500
     36 CAC         17.5230    10.6930    12.4790 c3         1 QQS      -0.104600
     37 CAA         19.6130     9.5530    11.6480 c3         1 QQS      -0.104600
     38 H2          27.6520    19.9700    23.5820 h1         1 QQS       0.034950
     39 H3          28.5480    20.7620    21.0800 hc         1 QQS       0.046700
     40 H4          27.0540    21.4030    21.7530 hc         1 QQS       0.046700
     41 H5          27.2640    19.6130    19.4290 hc         1 QQS       0.046700
     42 H6          25.8100    20.3110    20.1320 hc         1 QQS       0.046700
     43 H7          25.3960    18.0230    20.7060 h1         1 QQS       0.034950
     44 H8          27.1210    17.6430    20.7350 h1         1 QQS       0.034950
     45 H10         26.8170    16.6270    22.7820 h1         1 QQS       0.036200
     46 H11         27.0350    17.6810    24.1690 h1         1 QQS       0.036200
     47 H12         24.6530    17.9820    24.4700 hc         1 QQS       0.056700
     48 H13         25.0700    16.2720    24.4760 hc         1 QQS       0.056700
     49 H14         23.8200    17.8090    22.1500 h1         1 QQS       0.047700
     50 H15         22.9720    16.7120    23.2520 h1         1 QQS       0.047700
     51 H16         21.9950    16.9100    21.1370 ha         1 QQS       0.139000
     52 H17         27.1560    13.6010    20.6380 h1         1 QQS       0.036700
     53 H18         26.4570    14.2840    19.1450 h1         1 QQS       0.036700
     54 H19         26.4590    15.2400    20.6540 h1         1 QQS       0.036700
     55 H20         23.6740    13.0160    18.6010 ha         1 QQS       0.128000
     56 H21         17.8800    15.6810    17.2250 hc         1 QQS       0.066700
     57 H22         18.4570    17.8870    16.7430 hc         1 QQS       0.047950
     58 H23         19.0790    18.2030    18.3550 hc         1 QQS       0.047950
     59 H24         16.7610    19.2760    17.6070 hc         1 QQS       0.037950
     60 H25         16.9650    18.7000    19.2480 hc         1 QQS       0.037950
     61 H26         14.8100    17.8900    18.2060 hc         1 QQS       0.037200
     62 H27         15.7530    17.0410    16.9990 hc         1 QQS       0.037200
     63 H28         15.4050    16.4090    19.9340 hc         1 QQS       0.037950
     64 H29         15.4400    15.3180    18.5620 hc         1 QQS       0.037950
     65 H30         17.5090    14.8290    19.5760 hc         1 QQS       0.047950
     66 H31         17.7490    16.4660    20.1530 hc         1 QQS       0.047950
     67 H32         23.6920    13.8770    16.5730 h1         1 QQS       0.044033
     68 H33         23.4710    12.1200    16.6910 h1         1 QQS       0.044033
     69 H34         23.1550    12.9610    15.1750 h1         1 QQS       0.044033
     70 H35         19.7140    12.8480    16.1770 h1         1 QQS       0.085700
     71 H36         20.8460    10.6930    16.3720 hc         1 QQS       0.052700
     72 H37         21.8640    11.0540    14.9750 hc         1 QQS       0.052700
     73 H38         18.8260    10.7970    14.9830 h1         1 QQS       0.033700
     74 H39         19.9790     9.6590    14.2840 h1         1 QQS       0.033700
     75 H40         21.5740    13.4570    13.8500 hc         1 QQS       0.052700
     76 H41         20.3610    14.5370    14.5460 hc         1 QQS       0.052700
     77 H42         19.5490    13.3770    12.4770 h1         1 QQS       0.033700
     78 H43         18.5560    13.0270    13.8950 h1         1 QQS       0.033700
     79 H45         19.0800    11.5860    11.3190 h1         1 QQS       0.051700
     80 H46         17.0750    11.6270    12.8220 hc         1 QQS       0.037533
     81 H47         16.9770    10.3670    11.5910 hc         1 QQS       0.037533
     82 H48         17.3770     9.9380    13.2540 hc         1 QQS       0.037533
     83 H49         20.6720     9.6790    11.4170 hc         1 QQS       0.037533
     84 H50         19.5140     8.7580    12.3900 hc         1 QQS       0.037533
     85 H51         19.0970     9.2250    10.7440 hc         1 QQS       0.037533
     86 OAZ         24.3350    15.8060    21.9840 os         1 QQS      -0.345100
     87 H1          28.5410    18.8720    22.5110 h1         1 QQS       0.034950
@<TRIPOS>BOND
     1     1     2 ar  
     2     1     5 ar  
     3     1    15 ar  
     4     2     3 ar  
     5     2    19 ar  
     6     3     4 ar  
     7     3    27 1   
     8     4    20 ar  
     9     5    20 ar  
    10     6     7 1   
    11     6    10 1   
    12     6    38 1   
    13     6    87 1   
    14     7     8 1   
    15     7    39 1   
    16     7    40 1   
    17     8     9 1   
    18     8    41 1   
    19     8    42 1   
    20     9    10 1   
    21     9    43 1   
    22     9    44 1   
    23    10    11 1   
    24    11    12 1   
    25    11    45 1   
    26    11    46 1   
    27    12    13 1   
    28    12    47 1   
    29    12    48 1   
    30    13    49 1   
    31    13    50 1   
    32    13    86 1   
    33    14    15 ar  
    34    14    16 ar  
    35    14    86 1   
    36    15    51 1   
    37    16    17 1   
    38    16    19 ar  
    39    17    18 1   
    40    18    52 1   
    41    18    53 1   
    42    18    54 1   
    43    19    55 1   
    44    20    21 1   
    45    21    22 1   
    46    21    26 1   
    47    21    56 1   
    48    22    23 1   
    49    22    57 1   
    50    22    58 1   
    51    23    24 1   
    52    23    59 1   
    53    23    60 1   
    54    24    25 1   
    55    24    61 1   
    56    24    62 1   
    57    25    26 1   
    58    25    63 1   
    59    25    64 1   
    60    26    65 1   
    61    26    66 1   
    62    27    28 1   
    63    27    29 1   
    64    28    67 1   
    65    28    68 1   
    66    28    69 1   
    67    29    30 1   
    68    29    32 1   
    69    29    70 1   
    70    30    31 1   
    71    30    71 1   
    72    30    72 1   
    73    31    34 1   
    74    31    73 1   
    75    31    74 1   
    76    32    33 1   
    77    32    75 1   
    78    32    76 1   
    79    33    34 1   
    80    33    77 1   
    81    33    78 1   
    82    34    35 1   
    83    35    36 1   
    84    35    37 1   
    85    35    79 1   
    86    36    80 1   
    87    36    81 1   
    88    36    82 1   
    89    37    83 1   
    90    37    84 1   
    91    37    85 1   
@<TRIPOS>SUBSTRUCTURE
     1 QQS         1 TEMP              0 ****  ****    0 ROOT
