@<TRIPOS>MOLECULE
QQT
   61    64     1     0     0
SMALL
No Charge or Current Charge


@<TRIPOS>ATOM
      1 C4          12.3490   -13.0950    13.6700 ca         1 QQT       0.131400
      2 C5          11.4690   -12.3390    14.3870 ca         1 QQT      -0.017900
      3 C6          10.0920   -12.6040    14.4010 ca         1 QQT       0.172100
      4 C8           7.8370   -12.0190    15.2120 c3         1 QQT       0.146900
      5 C10         13.4240   -11.6030    14.6600 cc         1 QQT       0.778500
      6 N12         14.4140   -10.8100    15.1330 nu         1 QQT      -0.889400
      7 C13         15.8620   -11.0170    14.9390 c3         1 QQT       0.270800
      8 C15         16.1420    -9.0870    13.2810 ca         1 QQT      -0.093000
      9 C17         17.0260    -9.4570    11.0420 ca         1 QQT      -0.094000
     10 C26          7.1570   -13.3000     8.8670 c3         1 QQT      -0.088100
     11 C28          7.9820   -14.4810     9.4280 c6         1 QQT       0.147300
     12 C16         16.5180    -8.5900    12.0220 ca         1 QQT       0.120000
     13 Cl1         16.3500    -6.8740    11.6720 cl         1 QQT      -0.202000
     14 C18         17.1550   -10.8280    11.3220 ca         1 QQT      -0.099000
     15 C19         16.7780   -11.3290    12.5810 ca         1 QQT      -0.084000
     16 C14         16.2720   -10.4630    13.5730 ca         1 QQT      -0.105300
     17 C23         16.6990   -10.3920    16.0890 c3         1 QQT       0.173600
     18 F24         16.3570   -10.9320    17.2880 f          1 QQT      -0.258000
     19 O9          12.1240   -11.3520    15.0530 os         1 QQT      -0.286700
     20 N11         13.6360   -12.6320    13.8380 nd         1 QQT      -0.651100
     21 C3          11.9160   -14.1790    12.8980 ca         1 QQT      -0.063000
     22 O7           9.2580   -11.8070    15.1610 os         1 QQT      -0.324100
     23 C1           9.6270   -13.6960    13.6280 ca         1 QQT      -0.191000
     24 C2          10.5320   -14.4810    12.8530 ca         1 QQT      -0.109600
     25 O22         10.7950   -16.6410    11.8810 o          1 QQT      -0.591100
     26 N25          8.7400   -15.6710    11.5340 n          1 QQT      -0.410800
     27 C27          8.1210   -14.4250    10.9760 c6         1 QQT       0.067000
     28 O29          7.3140   -15.6940     9.0290 os         1 QQT      -0.446000
     29 C30          8.0090   -16.8860     9.4560 c6         1 QQT       0.142600
     30 C31          8.1100   -16.9250    11.0080 c6         1 QQT       0.066700
     31 C32          6.7240   -17.2000    11.6650 c3         1 QQT      -0.086400
     32 C33          6.7690   -17.3070    13.2020 c3         1 QQT       0.164600
     33 O34          5.4650   -17.6200    13.7030 oh         1 QQT      -0.665000
     34 H1           7.3650   -11.2740    15.8650 h1         1 QQT       0.044700
     35 H2           7.3930   -11.9240    14.2120 h1         1 QQT       0.044700
     36 H3           7.6040   -13.0150    15.6080 h1         1 QQT       0.044700
     37 H4          14.1000   -10.1890    15.8740 hn         1 QQT       0.517000
     38 H5          16.0770   -12.0950    14.9510 h1         1 QQT       0.097700
     39 H6          15.7420    -8.4020    14.0250 ha         1 QQT       0.126000
     40 H7          17.3160    -9.0680    10.0690 ha         1 QQT       0.132000
     41 H8           7.6290   -12.3410     9.1120 hc         1 QQT       0.047033
     42 H9           7.0770   -13.3600     7.7750 hc         1 QQT       0.047033
     43 H10          6.1420   -13.2900     9.2800 hc         1 QQT       0.047033
     44 H12         17.5440   -11.5040    10.5630 ha         1 QQT       0.122000
     45 H13         16.8770   -12.3940    12.7820 ha         1 QQT       0.123000
     46 H14         17.7650   -10.5800    15.9130 h1         1 QQT       0.057200
     47 H15         16.5380    -9.3080    16.1350 h1         1 QQT       0.057200
     48 H16         12.6380   -14.7680    12.3380 ha         1 QQT       0.148000
     49 H17          8.5730   -13.9570    13.6340 ha         1 QQT       0.125000
     50 H18          8.7240   -13.5420    11.2260 h1         1 QQT       0.061200
     51 H19          7.1310   -14.2810    11.4310 h1         1 QQT       0.061200
     52 H20          7.4720   -17.7710     9.0860 h1         1 QQT       0.057200
     53 H21          9.0170   -16.8940     9.0160 h1         1 QQT       0.057200
     54 H22          8.7430   -17.7870    11.2660 h1         1 QQT       0.090700
     55 H23          6.0120   -16.4130    11.3900 hc         1 QQT       0.062700
     56 H24          6.3150   -18.1360    11.2660 hc         1 QQT       0.062700
     57 H25          7.4850   -18.0890    13.4890 h1         1 QQT       0.020700
     58 H26          7.1200   -16.3560    13.6260 h1         1 QQT       0.020700
     59 H27          5.5420   -17.6820    14.6810 ho         1 QQT       0.442000
     60 C21         10.0660   -15.6680    12.0320 c          1 QQT       0.616700
     61 H11          8.9820   -14.4610     8.9710 h1         1 QQT       0.040700
@<TRIPOS>BOND
     1     1     2 ar  
     2     1    20 1   
     3     1    21 ar  
     4     2     3 ar  
     5     2    19 1   
     6     3    22 1   
     7     3    23 ar  
     8     4    22 1   
     9     4    34 1   
    10     4    35 1   
    11     4    36 1   
    12     5     6 1   
    13     5    19 1   
    14     5    20 2   
    15     6     7 1   
    16     6    37 1   
    17     7    16 1   
    18     7    17 1   
    19     7    38 1   
    20     8    12 ar  
    21     8    16 ar  
    22     8    39 1   
    23     9    12 ar  
    24     9    14 ar  
    25     9    40 1   
    26    10    11 1   
    27    10    41 1   
    28    10    42 1   
    29    10    43 1   
    30    11    27 1   
    31    11    28 1   
    32    11    61 1   
    33    12    13 1   
    34    14    15 ar  
    35    14    44 1   
    36    15    16 ar  
    37    15    45 1   
    38    17    18 1   
    39    17    46 1   
    40    17    47 1   
    41    21    24 ar  
    42    21    48 1   
    43    23    24 ar  
    44    23    49 1   
    45    24    60 1   
    46    25    60 2   
    47    26    27 1   
    48    26    30 1   
    49    26    60 1   
    50    27    50 1   
    51    27    51 1   
    52    28    29 1   
    53    29    30 1   
    54    29    52 1   
    55    29    53 1   
    56    30    31 1   
    57    30    54 1   
    58    31    32 1   
    59    31    55 1   
    60    31    56 1   
    61    32    33 1   
    62    32    57 1   
    63    32    58 1   
    64    33    59 1   
@<TRIPOS>SUBSTRUCTURE
     1 QQT         1 TEMP              0 ****  ****    0 ROOT
