@<TRIPOS>MOLECULE
QQT
   61    64     1     0     0
SMALL
abcg2


@<TRIPOS>ATOM
      1 C4          12.3080   -13.3080    13.8570 ca         1 QQT       0.131400
      2 C5          11.4440   -12.5490    14.6300 ca         1 QQT      -0.017900
      3 C6          10.0830   -12.7810    14.7370 ca         1 QQT       0.172100
      4 C8           7.9680   -12.2140    15.6250 c3         1 QQT       0.146900
      5 C10         13.4380   -11.7940    14.7950 cc         1 QQT       0.778500
      6 N12         14.3870   -10.9740    15.2490 nu         1 QQT      -0.889400
      7 C13         15.7470   -11.0910    14.7760 c3         1 QQT       0.270800
      8 C15         15.2890    -9.4680    12.9010 ca         1 QQT      -0.093000
      9 C17         16.3460    -9.7140    10.7390 ca         1 QQT      -0.094000
     10 C26          8.0170   -13.0400     9.0060 c3         1 QQT      -0.088100
     11 C28          8.5820   -14.3180     9.5860 c6         1 QQT       0.147300
     12 C16         15.5050    -9.0320    11.6040 ca         1 QQT       0.120000
     13 CL1         14.7010    -7.5970    11.0520 cl         1 QQT      -0.202000
     14 C18         16.9790   -10.8610    11.1950 ca         1 QQT      -0.099000
     15 C19         16.7700   -11.3130    12.4900 ca         1 QQT      -0.084000
     16 C14         15.9270   -10.6190    13.3490 ca         1 QQT      -0.105300
     17 C23         16.6710   -10.2880    15.6740 c3         1 QQT       0.173600
     18 F24         16.6240   -10.7780    16.9710 f          1 QQT      -0.258000
     19 O9          12.1800   -11.5720    15.2340 os         1 QQT      -0.286700
     20 N11         13.5840   -12.7930    13.9830 nd         1 QQT      -0.651100
     21 C3          11.8250   -14.3850    13.1240 ca         1 QQT      -0.063000
     22 O7           9.3630   -11.9820    15.5330 os         1 QQT      -0.324100
     23 C1           9.6010   -13.8520    13.9850 ca         1 QQT      -0.191000
     24 C2          10.4590   -14.6260    13.1910 ca         1 QQT      -0.109600
     25 O22         10.4170   -16.9180    12.6680 o          1 QQT      -0.591100
     26 N25          8.8680   -15.6270    11.6360 n          1 QQT      -0.410800
     27 C27          8.4500   -14.3380    11.1060 c6         1 QQT       0.067000
     28 O29          7.9040   -15.4150     9.0070 os         1 QQT      -0.446000
     29 C30          8.3940   -16.6430     9.4900 c6         1 QQT       0.142600
     30 C31          8.2130   -16.7680    10.9970 c6         1 QQT       0.066700
     31 C32          6.7430   -16.8760    11.4020 c3         1 QQT      -0.086400
     32 C33          6.5610   -17.0010    12.9020 c3         1 QQT       0.164600
     33 O34          5.1920   -17.2140    13.1710 oh         1 QQT      -0.665000
     34 H1           7.5780   -11.4690    16.3120 h1         1 QQT       0.044700
     35 H2           7.4740   -12.0980    14.6570 h1         1 QQT       0.044700
     36 H3           7.7490   -13.2080    16.0210 h1         1 QQT       0.044700
     37 H4          14.1160   -10.1870    15.8170 hn         1 QQT       0.517000
     38 H5          16.0440   -12.1430    14.8300 h1         1 QQT       0.097700
     39 H6          14.6220    -8.9170    13.5520 ha         1 QQT       0.126000
     40 H7          16.5010    -9.3630     9.7280 ha         1 QQT       0.132000
     41 H8           8.5280   -12.1760     9.4310 hc         1 QQT       0.047033
     42 H9           8.1490   -13.0080     7.9250 hc         1 QQT       0.047033
     43 H10          6.9520   -12.9440     9.2250 hc         1 QQT       0.047033
     44 H12         17.6340   -11.4070    10.5300 ha         1 QQT       0.122000
     45 H13         17.2610   -12.2160    12.8300 ha         1 QQT       0.123000
     46 H14         17.6940   -10.3630    15.3070 h1         1 QQT       0.057200
     47 H15         16.3790    -9.2350    15.6930 h1         1 QQT       0.057200
     48 H16         12.4800   -14.9960    12.5180 ha         1 QQT       0.148000
     49 H17          8.5480   -14.1020    14.0120 ha         1 QQT       0.125000
     50 H18          9.0630   -13.5410    11.5190 h1         1 QQT       0.061200
     51 H19          7.4150   -14.1310    11.3960 h1         1 QQT       0.061200
     52 H20          7.8470   -17.4370     8.9790 h1         1 QQT       0.057200
     53 H21          9.4600   -16.7570     9.2460 h1         1 QQT       0.057200
     54 H22          8.7290   -17.6720    11.3200 h1         1 QQT       0.090700
     55 H23          6.1650   -16.0280    11.0270 hc         1 QQT       0.062700
     56 H24          6.3380   -17.7690    10.9170 hc         1 QQT       0.062700
     57 H25          7.1780   -17.8290    13.2760 h1         1 QQT       0.020700
     58 H26          6.9220   -16.0910    13.3980 h1         1 QQT       0.020700
     59 H27          5.0750   -17.2400    14.1240 ho         1 QQT       0.442000
     60 C21          9.9170   -15.8190    12.4660 c          1 QQT       0.616700
     61 H11          9.6550   -14.3870     9.3450 h1         1 QQT       0.040700
@<TRIPOS>BOND
     1     1     2 ar  
     2     1    20 1   
     3     1    21 ar  
     4     2     3 ar  
     5     2    19 1   
     6     3    22 1   
     7     3    23 ar  
     8     4    22 1   
     9     4    34 1   
    10     4    35 1   
    11     4    36 1   
    12     5     6 1   
    13     5    19 1   
    14     5    20 2   
    15     6     7 1   
    16     6    37 1   
    17     7    16 1   
    18     7    17 1   
    19     7    38 1   
    20     8    12 ar  
    21     8    16 ar  
    22     8    39 1   
    23     9    12 ar  
    24     9    14 ar  
    25     9    40 1   
    26    10    11 1   
    27    10    41 1   
    28    10    42 1   
    29    10    43 1   
    30    11    27 1   
    31    11    28 1   
    32    11    61 1   
    33    12    13 1   
    34    14    15 ar  
    35    14    44 1   
    36    15    16 ar  
    37    15    45 1   
    38    17    18 1   
    39    17    46 1   
    40    17    47 1   
    41    21    24 ar  
    42    21    48 1   
    43    23    24 ar  
    44    23    49 1   
    45    24    60 1   
    46    25    60 2   
    47    26    27 1   
    48    26    30 1   
    49    26    60 1   
    50    27    50 1   
    51    27    51 1   
    52    28    29 1   
    53    29    30 1   
    54    29    52 1   
    55    29    53 1   
    56    30    31 1   
    57    30    54 1   
    58    31    32 1   
    59    31    55 1   
    60    31    56 1   
    61    32    33 1   
    62    32    57 1   
    63    32    58 1   
    64    33    59 1   
@<TRIPOS>SUBSTRUCTURE
     1 QQT         1 TEMP              0 ****  ****    0 ROOT
