@<TRIPOS>MOLECULE
QQU
   66    71     1     0     0
SMALL
No Charge or Current Charge


@<TRIPOS>ATOM
      1 N1         -25.2160     3.2040    22.4390 na         1 QQU      -0.016200
      2 N3         -19.9420     5.3640    27.7120 ns         1 QQU      -0.174000
      3 C4         -21.6430     6.4470    30.2450 c6         1 QQU       0.158600
      4 C5         -22.4130     5.7540    29.1040 c6         1 QQU      -0.113400
      5 C6         -21.9050     4.2840    28.8910 c6         1 QQU      -0.054700
      6 C7         -22.9230     3.5140    27.9600 c3         1 QQU      -0.152400
      7 C8         -23.2890     4.2810    26.6700 c          1 QQU       0.602100
      8 C10        -26.7860     5.8090    27.4780 c6         1 QQU      -0.091400
      9 C13        -24.8840     5.5610    25.2140 c6         1 QQU       0.185000
     10 C15        -24.6450     4.3660    22.9530 cc         1 QQU      -0.154000
     11 C17        -20.4890     4.1830    28.2020 c          1 QQU       0.595100
     12 C20        -16.1900     6.1550    26.0100 ca         1 QQU       0.344900
     13 C21        -17.2320     7.0750    25.7880 ca         1 QQU      -0.087000
     14 C22        -17.0090     8.2320    25.0170 ca         1 QQU      -0.084000
     15 C24        -19.3250     8.8980    25.3470 ca         1 QQU      -0.098000
     16 C26        -18.5050     6.8230    26.3470 ca         1 QQU      -0.026000
     17 C28        -21.7440     2.1810    30.3870 ca         1 QQU      -0.058000
     18 O2         -19.9090     3.1080    28.0960 o          1 QQU      -0.578100
     19 C18        -18.6790     5.6430    27.1120 ca         1 QQU      -0.066000
     20 C25        -19.5530     7.7440    26.1170 ca         1 QQU      -0.097000
     21 C23        -18.0550     9.1430    24.7990 ca         1 QQU      -0.111000
     22 N4         -16.3430     5.0310    26.7440 nb         1 QQU      -0.648000
     23 C19        -17.5610     4.7870    27.2800 ca         1 QQU       0.320900
     24 O          -21.8430     5.7320    31.4750 os         1 QQU      -0.347100
     25 C27        -21.8100     3.5920    30.2820 ca         1 QQU      -0.140300
     26 C3         -21.7780     4.3550    31.4820 ca         1 QQU       0.162100
     27 C2         -21.7140     3.7190    32.7320 ca         1 QQU      -0.135000
     28 C1         -21.6570     2.3190    32.8160 ca         1 QQU      -0.061000
     29 C          -21.6680     1.5540    31.6420 ca         1 QQU       0.089000
     30 Cl         -21.5880    -0.2010    31.7400 cl         1 QQU      -0.212000
     31 O1         -22.4570     4.3390    25.7740 o          1 QQU      -0.650100
     32 N          -24.5340     4.9560    26.5410 n          1 QQU      -0.388800
     33 C12        -26.0320     6.6030    25.2390 c6         1 QQU      -0.082400
     34 C11        -27.2480     6.1280    26.0510 c6         1 QQU      -0.074400
     35 C9         -25.6640     4.7450    27.5090 c6         1 QQU       0.100000
     36 C14        -25.1810     4.4630    24.2060 cd         1 QQU      -0.223300
     37 C16        -26.0410     3.3560    24.3810 cd         1 QQU       0.255900
     38 N2         -26.0830     2.5730    23.3190 nc         1 QQU      -0.514800
     39 H1         -25.0410     2.8180    21.5110 hn         1 QQU       0.374000
     40 H2         -20.5450     6.1690    27.7990 hn         1 QQU       0.204000
     41 H3         -20.5660     6.4850    30.0300 h1         1 QQU       0.071200
     42 H4         -21.9970     7.4800    30.3750 h1         1 QQU       0.071200
     43 H5         -22.3570     6.3540    28.1860 hc         1 QQU       0.064200
     44 H6         -23.4740     5.7430    29.3850 hc         1 QQU       0.064200
     45 H7         -23.8140     3.2700    28.5420 hc         1 QQU       0.078200
     46 H8         -22.4820     2.5650    27.6370 hc         1 QQU       0.078200
     47 H9         -26.4210     6.7280    27.9570 hc         1 QQU       0.051700
     48 H10        -27.6370     5.4650    28.0820 hc         1 QQU       0.051700
     49 H11        -23.9970     6.1050    24.8540 h1         1 QQU       0.096700
     50 H12        -23.9410     4.9850    22.4080 h4         1 QQU       0.154000
     51 H14        -16.0280     8.4260    24.5880 ha         1 QQU       0.117000
     52 H15        -20.1350     9.6030    25.1740 ha         1 QQU       0.112000
     53 H16        -21.7420     1.5550    29.5000 ha         1 QQU       0.126000
     54 H17        -20.5490     7.5810    26.5200 ha         1 QQU       0.123000
     55 H18        -17.8830    10.0370    24.2030 ha         1 QQU       0.115000
     56 H19        -17.6210     3.8850    27.8850 h4         1 QQU       0.035100
     57 H20        -21.7040     4.3160    33.6400 ha         1 QQU       0.134000
     58 H21        -21.6020     1.8290    33.7850 ha         1 QQU       0.133000
     59 H22        -25.6530     7.5360    25.6780 hc         1 QQU       0.050700
     60 H23        -26.3360     6.8530    24.2140 hc         1 QQU       0.050700
     61 H24        -28.0150     6.9140    26.0720 hc         1 QQU       0.046700
     62 H25        -27.7110     5.2480    25.5870 hc         1 QQU       0.046700
     63 H26        -26.1030     3.7560    27.3200 h1         1 QQU       0.057200
     64 H27        -25.2850     4.7320    28.5370 h1         1 QQU       0.057200
     65 H28        -26.6370     3.0980    25.2470 h4         1 QQU       0.040100
     66 H13        -15.1990     6.3230    25.5910 h4         1 QQU       0.019100
@<TRIPOS>BOND
     1     1    10 1   
     2     1    38 1   
     3     1    39 1   
     4     2    11 1   
     5     2    19 1   
     6     2    40 1   
     7     3     4 1   
     8     3    24 1   
     9     3    41 1   
    10     3    42 1   
    11     4     5 1   
    12     4    43 1   
    13     4    44 1   
    14     5     6 1   
    15     5    11 1   
    16     5    25 1   
    17     6     7 1   
    18     6    45 1   
    19     6    46 1   
    20     7    31 2   
    21     7    32 1   
    22     8    34 1   
    23     8    35 1   
    24     8    47 1   
    25     8    48 1   
    26     9    32 1   
    27     9    33 1   
    28     9    36 1   
    29     9    49 1   
    30    10    36 2   
    31    10    50 1   
    32    11    18 2   
    33    12    13 ar  
    34    12    22 ar  
    35    12    66 1   
    36    13    14 ar  
    37    13    16 ar  
    38    14    21 ar  
    39    14    51 1   
    40    15    20 ar  
    41    15    21 ar  
    42    15    52 1   
    43    16    19 ar  
    44    16    20 ar  
    45    17    25 ar  
    46    17    29 ar  
    47    17    53 1   
    48    19    23 ar  
    49    20    54 1   
    50    21    55 1   
    51    22    23 ar  
    52    23    56 1   
    53    24    26 1   
    54    25    26 ar  
    55    26    27 ar  
    56    27    28 ar  
    57    27    57 1   
    58    28    29 ar  
    59    28    58 1   
    60    29    30 1   
    61    32    35 1   
    62    33    34 1   
    63    33    59 1   
    64    33    60 1   
    65    34    61 1   
    66    34    62 1   
    67    35    63 1   
    68    35    64 1   
    69    36    37 1   
    70    37    38 2   
    71    37    65 1   
@<TRIPOS>SUBSTRUCTURE
     1 QQU         1 TEMP              0 ****  ****    0 ROOT
