@<TRIPOS>MOLECULE
QQU
   66    71     1     0     0
SMALL
abcg2


@<TRIPOS>ATOM
      1 N1         -26.4930     3.6020    22.6040 na         1 QQU      -0.016200
      2 N3         -19.8960     5.0310    27.4290 ns         1 QQU      -0.174000
      3 C4         -22.1010     6.5990    30.3720 c6         1 QQU       0.158600
      4 C5         -22.4570     5.9410    29.0610 c6         1 QQU      -0.113400
      5 C6         -21.7890     4.5530    28.9240 c6         1 QQU      -0.054700
      6 C7         -22.4680     3.7370    27.7740 c3         1 QQU      -0.152400
      7 C8         -22.9580     4.5630    26.5970 c          1 QQU       0.602100
      8 C10        -26.2800     5.4200    27.6820 c6         1 QQU      -0.091400
      9 C13        -24.7150     5.4920    25.1960 c6         1 QQU       0.185000
     10 C15        -26.3700     4.7320    23.3350 cc         1 QQU      -0.154000
     11 C17        -20.2680     4.7760    28.7060 c          1 QQU       0.595100
     12 C20        -16.0490     6.0580    26.2700 ca         1 QQU       0.344900
     13 C21        -17.1040     6.8850    25.8170 ca         1 QQU      -0.087000
     14 C22        -16.8750     8.0190    25.0030 ca         1 QQU      -0.084000
     15 C24        -19.2390     8.4970    25.0160 ca         1 QQU      -0.098000
     16 C26        -18.4310     6.5620    26.2160 ca         1 QQU      -0.026000
     17 C28        -21.7490     2.4260    30.3010 ca         1 QQU      -0.058000
     18 O2         -19.4900     4.7800    29.6520 o          1 QQU      -0.578100
     19 C18        -18.5980     5.4100    27.0330 ca         1 QQU      -0.066000
     20 C25        -19.4940     7.4000    25.8020 ca         1 QQU      -0.097000
     21 C23        -17.9230     8.8090    24.6080 ca         1 QQU      -0.111000
     22 N4         -16.2260     5.0050    27.0340 nb         1 QQU      -0.648000
     23 C19        -17.4910     4.6850    27.4040 ca         1 QQU       0.320900
     24 O          -22.5590     5.8100    31.4830 os         1 QQU      -0.347100
     25 C27        -21.9660     3.8030    30.2380 ca         1 QQU      -0.140300
     26 C3         -22.3440     4.4680    31.4110 ca         1 QQU       0.162100
     27 C2         -22.5390     3.7550    32.5960 ca         1 QQU      -0.135000
     28 C1         -22.3350     2.3880    32.6420 ca         1 QQU      -0.061000
     29 C          -21.9300     1.7340    31.4840 ca         1 QQU       0.089000
     30 CL         -21.6450     0.0030    31.5240 cl         1 QQU      -0.212000
     31 O1         -22.1120     5.0400    25.8150 o          1 QQU      -0.650100
     32 N          -24.2740     4.7550    26.4020 n          1 QQU      -0.388800
     33 C12        -25.6410     6.6450    25.5980 c6         1 QQU      -0.082400
     34 C11        -26.8060     6.1850    26.4710 c6         1 QQU      -0.074400
     35 C9         -25.3680     4.2710    27.2550 c6         1 QQU       0.100000
     36 C14        -25.3110     4.5340    24.2000 cd         1 QQU      -0.223300
     37 C16        -24.8640     3.2270    23.9030 cd         1 QQU       0.255900
     38 N2         -25.5860     2.6650    22.9350 nc         1 QQU      -0.514800
     39 H1         -27.1730     3.4120    21.8850 hn         1 QQU       0.374000
     40 H2         -20.6380     5.0680    26.7160 hn         1 QQU       0.204000
     41 H3         -21.0220     6.7440    30.4690 h1         1 QQU       0.071200
     42 H4         -22.5980     7.5610    30.4760 h1         1 QQU       0.071200
     43 H5         -22.1680     6.5900    28.2340 hc         1 QQU       0.064200
     44 H6         -23.5400     5.8150    29.0190 hc         1 QQU       0.064200
     45 H7         -23.2700     3.1580    28.2130 hc         1 QQU       0.078200
     46 H8         -21.7590     3.0210    27.3590 hc         1 QQU       0.078200
     47 H9         -25.7220     6.0960    28.3360 hc         1 QQU       0.051700
     48 H10        -27.1020     5.0040    28.2690 hc         1 QQU       0.051700
     49 H11        -23.8100     5.9160    24.7700 h1         1 QQU       0.096700
     50 H12        -27.0300     5.5710    23.1890 h4         1 QQU       0.154000
     51 H14        -15.8590     8.2510    24.7050 ha         1 QQU       0.117000
     52 H15        -20.0560     9.1360    24.7070 ha         1 QQU       0.112000
     53 H16        -21.4350     1.8910    29.4160 ha         1 QQU       0.126000
     54 H17        -20.5050     7.1770    26.1100 ha         1 QQU       0.123000
     55 H18        -17.7480     9.6780    23.9860 ha         1 QQU       0.115000
     56 H19        -17.6050     3.8060    28.0230 h4         1 QQU       0.035100
     57 H20        -22.8440     4.2960    33.4830 ha         1 QQU       0.134000
     58 H21        -22.4820     1.8400    33.5620 ha         1 QQU       0.133000
     59 H22        -25.0410     7.3740    26.1500 hc         1 QQU       0.050700
     60 H23        -25.9960     7.1430    24.6950 hc         1 QQU       0.050700
     61 H24        -27.3950     7.0470    26.7920 hc         1 QQU       0.046700
     62 H25        -27.4730     5.5370    25.8960 hc         1 QQU       0.046700
     63 H26        -25.9430     3.5350    26.6860 h1         1 QQU       0.057200
     64 H27        -24.9680     3.7730    28.1280 h1         1 QQU       0.057200
     65 H28        -24.0560     2.6790    24.3620 h4         1 QQU       0.040100
     66 H13        -15.0310     6.2980    25.9760 h4         1 QQU       0.019100
@<TRIPOS>BOND
     1     1    10 1   
     2     1    38 1   
     3     1    39 1   
     4     2    11 1   
     5     2    19 1   
     6     2    40 1   
     7     3     4 1   
     8     3    24 1   
     9     3    41 1   
    10     3    42 1   
    11     4     5 1   
    12     4    43 1   
    13     4    44 1   
    14     5     6 1   
    15     5    11 1   
    16     5    25 1   
    17     6     7 1   
    18     6    45 1   
    19     6    46 1   
    20     7    31 2   
    21     7    32 1   
    22     8    34 1   
    23     8    35 1   
    24     8    47 1   
    25     8    48 1   
    26     9    32 1   
    27     9    33 1   
    28     9    36 1   
    29     9    49 1   
    30    10    36 2   
    31    10    50 1   
    32    11    18 2   
    33    12    13 ar  
    34    12    22 ar  
    35    12    66 1   
    36    13    14 ar  
    37    13    16 ar  
    38    14    21 ar  
    39    14    51 1   
    40    15    20 ar  
    41    15    21 ar  
    42    15    52 1   
    43    16    19 ar  
    44    16    20 ar  
    45    17    25 ar  
    46    17    29 ar  
    47    17    53 1   
    48    19    23 ar  
    49    20    54 1   
    50    21    55 1   
    51    22    23 ar  
    52    23    56 1   
    53    24    26 1   
    54    25    26 ar  
    55    26    27 ar  
    56    27    28 ar  
    57    27    57 1   
    58    28    29 ar  
    59    28    58 1   
    60    29    30 1   
    61    32    35 1   
    62    33    34 1   
    63    33    59 1   
    64    33    60 1   
    65    34    61 1   
    66    34    62 1   
    67    35    63 1   
    68    35    64 1   
    69    36    37 1   
    70    37    38 2   
    71    37    65 1   
@<TRIPOS>SUBSTRUCTURE
     1 QQU         1 TEMP              0 ****  ****    0 ROOT
