@<TRIPOS>MOLECULE
QQV
   53    55     1     0     0
SMALL
No Charge or Current Charge


@<TRIPOS>ATOM
      1 O12         -1.5420    -3.6920     0.8290 o          1 QQV      -0.518500
      2 S1          -2.0180    -2.7020    -0.1470 sy         1 QQV       1.042500
      3 O11         -2.0330    -3.0220    -1.5820 o          1 QQV      -0.518500
      4 C13         -3.6890    -2.2160     0.3330 ca         1 QQV      -0.263500
      5 C24         -4.6170    -1.7940    -0.6430 ca         1 QQV      -0.018000
      6 C27         -5.9110    -1.4020    -0.2580 ca         1 QQV      -0.126500
      7 C28         -6.2850    -1.4260     1.0960 ca         1 QQV      -0.054000
      8 C26         -5.3610    -1.8420     2.0700 ca         1 QQV      -0.126500
      9 C25         -4.0650    -2.2350     1.6930 ca         1 QQV      -0.018000
     10 C4          -0.9620    -1.1850     0.0780 c5         1 QQV      -0.285700
     11 C7          -1.4350    -0.0150    -0.8260 c5         1 QQV      -0.038400
     12 C6           0.4740    -1.4030    -0.4600 c5         1 QQV      -0.042400
     13 C2           1.0240     0.0510    -0.3470 c5         1 QQV      -0.136700
     14 C5          -0.2060     0.9550    -0.7820 c5         1 QQV      -0.136700
     15 C9          -0.4470     2.0640     0.2820 c          1 QQV       0.608100
     16 N17         -0.3740     3.3050    -0.3120 ns         1 QQV      -0.485900
     17 C21         -0.5220     4.5820     0.4150 c3         1 QQV       0.040700
     18 C14          0.6670     4.8920     1.3100 c2         1 QQV       0.398200
     19 N10          1.7930     5.3250     0.8590 n2         1 QQV      -0.745100
     20 O16         -0.6590     1.9140     1.4770 o          1 QQV      -0.618100
     21 C3           2.2390     0.2110    -1.3150 c          1 QQV       0.618100
     22 O15          2.1600     0.3850    -2.5260 o          1 QQV      -0.610100
     23 N8           3.4890     0.1990    -0.6440 n          1 QQV      -0.409800
     24 C19          4.6990     0.6280    -1.4170 c6         1 QQV       0.059500
     25 C23          5.9730     0.8230    -0.5560 c6         1 QQV       0.134100
     26 O18          6.1990    -0.3350     0.2680 os         1 QQV      -0.442000
     27 C22          5.1160    -0.5720     1.1850 c6         1 QQV       0.134100
     28 C20          3.7950    -0.8290     0.4130 c6         1 QQV       0.059500
     29 HXT          0.5370     4.7340     2.3770 h4         1 QQV      -0.027200
     30 H4          -0.9830    -0.9300     1.1450 h1         1 QQV       0.099700
     31 H24         -4.3430    -1.7650    -1.6960 ha         1 QQV       0.136000
     32 H25         -3.3580    -2.5500     2.4600 ha         1 QQV       0.136000
     33 H27         -6.6260    -1.0780    -1.0120 ha         1 QQV       0.122500
     34 H28         -7.2870    -1.1220     1.3910 ha         1 QQV       0.119000
     35 H26         -5.6480    -1.8580     3.1190 ha         1 QQV       0.122500
     36 H71C        -1.6220    -0.3460    -1.8560 hc         1 QQV       0.066200
     37 H72C        -2.3630     0.4490    -0.4710 hc         1 QQV       0.066200
     38 H61C         1.0480    -2.1210     0.1390 hc         1 QQV       0.068200
     39 H62C         0.4780    -1.7650    -1.4960 hc         1 QQV       0.068200
     40 H5          -0.0620     1.4130    -1.7680 hc         1 QQV       0.093700
     41 H2           1.3250     0.2450     0.6870 hc         1 QQV       0.086700
     42 H17         -0.1770     3.3320    -1.3060 hn         1 QQV       0.330500
     43 H211        -0.6500     5.3920    -0.3140 h1         1 QQV       0.076200
     44 H212        -1.4320     4.5400     1.0280 h1         1 QQV       0.076200
     45 H10          2.4420     5.4610     1.6490 hn         1 QQV       0.377400
     46 H191         4.9100    -0.1250    -2.1900 h1         1 QQV       0.064450
     47 H192         4.4820     1.5720    -1.9370 h1         1 QQV       0.064450
     48 H201         2.9920    -0.8970     1.1560 h1         1 QQV       0.064450
     49 H202         3.8610    -1.8140    -0.0710 h1         1 QQV       0.064450
     50 H231         6.8450     0.9810    -1.2060 h1         1 QQV       0.055700
     51 H232         5.8600     1.7090     0.0860 h1         1 QQV       0.055700
     52 H221         5.3580    -1.4410     1.8130 h1         1 QQV       0.055700
     53 H222         5.0010     0.3010     1.8440 h1         1 QQV       0.055700
@<TRIPOS>BOND
     1     1     2 2   
     2     2     3 2   
     3     2     4 1   
     4     2    10 1   
     5     4     5 ar  
     6     4     9 ar  
     7     5     6 ar  
     8     5    31 1   
     9     6     7 ar  
    10     6    33 1   
    11     7     8 ar  
    12     7    34 1   
    13     8     9 ar  
    14     8    35 1   
    15     9    32 1   
    16    10    11 1   
    17    10    12 1   
    18    10    30 1   
    19    11    14 1   
    20    11    36 1   
    21    11    37 1   
    22    12    13 1   
    23    12    38 1   
    24    12    39 1   
    25    13    14 1   
    26    13    21 1   
    27    13    41 1   
    28    14    15 1   
    29    14    40 1   
    30    15    16 1   
    31    15    20 2   
    32    16    17 1   
    33    16    42 1   
    34    17    18 1   
    35    17    43 1   
    36    17    44 1   
    37    18    19 2   
    38    18    29 1   
    39    19    45 1   
    40    21    22 2   
    41    21    23 1   
    42    23    24 1   
    43    23    28 1   
    44    24    25 1   
    45    24    46 1   
    46    24    47 1   
    47    25    26 1   
    48    25    50 1   
    49    25    51 1   
    50    26    27 1   
    51    27    28 1   
    52    27    52 1   
    53    27    53 1   
    54    28    48 1   
    55    28    49 1   
@<TRIPOS>SUBSTRUCTURE
     1 QQV         1 TEMP              0 ****  ****    0 ROOT
