@<TRIPOS>MOLECULE
QQV
   53    55     1     0     0
SMALL
bcc


@<TRIPOS>ATOM
      1 O12         -1.6080    -3.4840    -1.0460 o          1 QQV      -0.589300
      2 S1          -2.0990    -2.1130    -0.9050 sy         1 QQV       1.073300
      3 O11         -2.1960    -1.2770    -2.1020 o          1 QQV      -0.589300
      4 C13         -3.6920    -2.1710    -0.1290 ca         1 QQV      -0.263500
      5 C24         -4.6780    -1.2720    -0.5080 ca         1 QQV      -0.036000
      6 C27         -5.9160    -1.3320     0.1160 ca         1 QQV      -0.144500
      7 C28         -6.1540    -2.2780     1.1040 ca         1 QQV      -0.072000
      8 C26         -5.1580    -3.1750     1.4720 ca         1 QQV      -0.144500
      9 C25         -3.9190    -3.1300     0.8520 ca         1 QQV      -0.036000
     10 C4          -1.0500    -1.2860     0.2950 c5         1 QQV      -0.174900
     11 C7          -1.4260     0.1920     0.5010 c5         1 QQV      -0.038400
     12 C6           0.4060    -1.3100    -0.2100 c5         1 QQV      -0.042400
     13 C2           0.9190     0.1010     0.1060 c5         1 QQV      -0.136700
     14 C5          -0.3020     0.9730    -0.1820 c5         1 QQV      -0.136700
     15 C9          -0.1430     2.3760     0.3620 c          1 QQV       0.675100
     16 N17         -0.2770     3.3620    -0.5380 ns         1 QQV      -0.552900
     17 C21         -0.0610     4.7540    -0.2220 c3         1 QQV       0.040700
     18 C14          1.3900     5.1290    -0.3360 c2         1 QQV       0.398200
     19 N10          1.7530     6.1510    -0.9820 n2         1 QQV      -0.745100
     20 O16          0.0850     2.5800     1.5470 o          1 QQV      -0.618100
     21 C3           2.1420     0.4900    -0.7040 c          1 QQV       0.685100
     22 O15          2.0310     1.2500    -1.6580 o          1 QQV      -0.610100
     23 N8           3.3250    -0.0500    -0.3460 n          1 QQV      -0.476800
     24 C19          4.5420     0.2440    -1.0860 c6         1 QQV       0.059500
     25 C23          5.6040     0.7700    -0.1370 c6         1 QQV       0.110900
     26 O18          5.8400    -0.1270     0.9260 os         1 QQV      -0.395600
     27 C22          4.6620    -0.3710     1.6590 c6         1 QQV       0.110900
     28 C20          3.5610    -0.9400     0.7780 c6         1 QQV       0.059500
     29 HXT          2.0840     4.4620     0.1820 h4         1 QQV      -0.027200
     30 H4          -1.1550    -1.8620     1.2150 h1         1 QQV       0.099700
     31 H24         -4.4960    -0.5380    -1.2820 ha         1 QQV       0.154000
     32 H25         -3.1480    -3.8360     1.1300 ha         1 QQV       0.154000
     33 H27         -6.6950    -0.6390    -0.1720 ha         1 QQV       0.140500
     34 H28         -7.1200    -2.3190     1.5890 ha         1 QQV       0.137000
     35 H26         -5.3450    -3.9150     2.2380 ha         1 QQV       0.140500
     36 H71C        -2.4090     0.4630     0.1160 hc         1 QQV       0.066200
     37 H72C        -1.4360     0.3990     1.5710 hc         1 QQV       0.066200
     38 H61C         0.9800    -2.1010     0.2670 hc         1 QQV       0.068200
     39 H62C         0.4600    -1.4760    -1.2900 hc         1 QQV       0.068200
     40 H5          -0.4820     0.9960    -1.2590 hc         1 QQV       0.093700
     41 H2           1.1300     0.1740     1.1780 hc         1 QQV       0.086700
     42 H17         -0.3580     3.1130    -1.5100 hn         1 QQV       0.330500
     43 H211        -0.6530     5.3710    -0.8960 h1         1 QQV       0.076200
     44 H212        -0.4060     4.9470     0.7950 h1         1 QQV       0.076200
     45 H10          2.7620     6.2600    -0.9390 hn         1 QQV       0.377400
     46 H191         4.8950    -0.6720    -1.5720 h1         1 QQV       0.064450
     47 H192         4.3390     0.9780    -1.8610 h1         1 QQV       0.064450
     48 H201         2.6640    -1.0740     1.3760 h1         1 QQV       0.064450
     49 H202         3.8530    -1.9260     0.4020 h1         1 QQV       0.064450
     50 H231         6.5460     0.9000    -0.6710 h1         1 QQV       0.055700
     51 H232         5.2930     1.7520     0.2480 h1         1 QQV       0.055700
     52 H221         4.9060    -1.0830     2.4490 h1         1 QQV       0.055700
     53 H222         4.3010     0.5530     2.1330 h1         1 QQV       0.055700
@<TRIPOS>BOND
     1     1     2 2   
     2     2     3 2   
     3     2     4 1   
     4     2    10 1   
     5     4     5 ar  
     6     4     9 ar  
     7     5     6 ar  
     8     5    31 1   
     9     6     7 ar  
    10     6    33 1   
    11     7     8 ar  
    12     7    34 1   
    13     8     9 ar  
    14     8    35 1   
    15     9    32 1   
    16    10    11 1   
    17    10    12 1   
    18    10    30 1   
    19    11    14 1   
    20    11    36 1   
    21    11    37 1   
    22    12    13 1   
    23    12    38 1   
    24    12    39 1   
    25    13    14 1   
    26    13    21 1   
    27    13    41 1   
    28    14    15 1   
    29    14    40 1   
    30    15    16 1   
    31    15    20 2   
    32    16    17 1   
    33    16    42 1   
    34    17    18 1   
    35    17    43 1   
    36    17    44 1   
    37    18    19 2   
    38    18    29 1   
    39    19    45 1   
    40    21    22 2   
    41    21    23 1   
    42    23    24 1   
    43    23    28 1   
    44    24    25 1   
    45    24    46 1   
    46    24    47 1   
    47    25    26 1   
    48    25    50 1   
    49    25    51 1   
    50    26    27 1   
    51    27    28 1   
    52    27    52 1   
    53    27    53 1   
    54    28    48 1   
    55    28    49 1   
@<TRIPOS>SUBSTRUCTURE
     1 QQV         1 TEMP              0 ****  ****    0 ROOT
