@<TRIPOS>MOLECULE
QQW
   61    64     1     0     0
SMALL
No Charge or Current Charge


@<TRIPOS>ATOM
      1 C4          12.8050   -13.5520    13.4110 ca         1 QQW       0.131400
      2 C5          11.8650   -12.7200    13.9430 ca         1 QQW      -0.017900
      3 C7          13.7890   -12.0530    14.4820 cc         1 QQW       0.779500
      4 C10         16.1620   -11.2980    14.7580 c3         1 QQW       0.304800
      5 C13         17.0670   -10.5810    11.0920 ca         1 QQW      -0.100000
      6 C15         16.5040    -8.4720    12.1590 ca         1 QQW       0.120000
      7 C20          8.1690   -12.1970    14.1660 c3         1 QQW       0.146900
      8 C24          9.0580   -14.8030    10.0810 c6         1 QQW       0.066000
      9 C28          8.8980   -17.2950    10.1860 c6         1 QQW       0.066700
     10 C16         16.2630    -9.1430    13.3690 ca         1 QQW      -0.090000
     11 C14         16.9070    -9.1870    11.0200 ca         1 QQW      -0.098000
     12 C12         16.8260   -11.2560    12.3020 ca         1 QQW      -0.088000
     13 C11         16.4270   -10.5440    13.4530 ca         1 QQW      -0.090300
     14 C33         16.9490   -10.7290    15.9530 c3         1 QQW      -0.108100
     15 N9          14.7330   -11.2740    15.0600 nu         1 QQW      -0.898400
     16 O6          12.4590   -11.7260    14.6540 os         1 QQW      -0.289700
     17 N8          14.0730   -13.1350    13.7550 nd         1 QQW      -0.650100
     18 C3          12.4420   -14.6590    12.6350 ca         1 QQW      -0.058000
     19 C18         10.4900   -12.9250    13.7560 ca         1 QQW       0.171100
     20 O19          9.5900   -12.0530    14.3360 os         1 QQW      -0.323100
     21 C1          10.0950   -14.0390    12.9750 ca         1 QQW      -0.192000
     22 C2          11.0680   -14.9000    12.3870 ca         1 QQW      -0.110600
     23 N23          9.5050   -16.0560    10.7710 n          1 QQW      -0.407800
     24 C25          7.5080   -14.7350     9.9700 c6         1 QQW       0.155300
     25 C32          7.0300   -13.5610     9.0830 c3         1 QQW      -0.090100
     26 O26          6.9910   -15.9480     9.3850 os         1 QQW      -0.447000
     27 C27          7.3490   -17.1350    10.1310 c6         1 QQW       0.146600
     28 C29          9.4410   -17.6570     8.7600 c3         1 QQW      -0.127400
     29 C30         10.9700   -17.7970     8.6070 c3         1 QQW       0.166600
     30 O31         11.4720   -18.7590     9.5360 oh         1 QQW      -0.672000
     31 H1          16.4910   -12.3400    14.6290 h1         1 QQW       0.078700
     32 H2          17.3750   -11.1390    10.2100 ha         1 QQW       0.120000
     33 H3           7.6400   -11.3970    14.6980 h1         1 QQW       0.044033
     34 H4           7.8950   -12.1390    13.1050 h1         1 QQW       0.044033
     35 H5           7.8240   -13.1580    14.5670 h1         1 QQW       0.044033
     36 H7           9.4280   -13.9020    10.5820 h1         1 QQW       0.063200
     37 H8           9.1110   -18.1440    10.8520 h1         1 QQW       0.086700
     38 H9          15.9430    -8.5720    14.2350 ha         1 QQW       0.126000
     39 H10         17.0910    -8.6630    10.0860 ha         1 QQW       0.130000
     40 H11         16.9470   -12.3360    12.3430 ha         1 QQW       0.120000
     41 H12         16.7870   -11.3450    16.8460 hc         1 QQW       0.050367
     42 H13         18.0230   -10.7280    15.7330 hc         1 QQW       0.050367
     43 H14         16.6450    -9.7020    16.1870 hc         1 QQW       0.050367
     44 H15         14.3410   -10.4420    15.4890 hn         1 QQW       0.515000
     45 H16         13.2090   -15.3110    12.2240 ha         1 QQW       0.150000
     46 H17          9.0410   -14.2600    12.8310 ha         1 QQW       0.124000
     47 H18          7.0760   -14.6160    10.9740 h1         1 QQW       0.032700
     48 H19          7.3650   -12.6000     9.4920 hc         1 QQW       0.048033
     49 H20          7.4220   -13.6470     8.0630 hc         1 QQW       0.048033
     50 H21          5.9360   -13.5340     9.0250 hc         1 QQW       0.048033
     51 H22          6.9450   -17.0550    11.1510 h1         1 QQW       0.055200
     52 H23          6.8910   -18.0130     9.6540 h1         1 QQW       0.055200
     53 H24          9.1090   -16.9080     8.0320 hc         1 QQW       0.056700
     54 H25          8.9850   -18.6010     8.4360 hc         1 QQW       0.056700
     55 H26         11.1980   -18.1060     7.5780 h1         1 QQW       0.035700
     56 H27         11.4440   -16.8210     8.7720 h1         1 QQW       0.035700
     57 H28         11.4580   -18.2950    10.4180 ho         1 QQW       0.470000
     58 C21         10.6740   -16.1120    11.5690 c          1 QQW       0.622700
     59 Cl1         16.2950    -6.7280    12.0690 cl         1 QQW      -0.208000
     60 O22         11.3050   -17.1580    11.6770 o          1 QQW      -0.612100
     61 H6           9.4890   -14.7880     9.0710 h1         1 QQW       0.063200
@<TRIPOS>BOND
     1     1     2 ar  
     2     1    17 1   
     3     1    18 ar  
     4     2    16 1   
     5     2    19 ar  
     6     3    15 1   
     7     3    16 1   
     8     3    17 2   
     9     4    13 1   
    10     4    14 1   
    11     4    15 1   
    12     4    31 1   
    13     5    11 ar  
    14     5    12 ar  
    15     5    32 1   
    16     6    10 ar  
    17     6    11 ar  
    18     6    59 1   
    19     7    20 1   
    20     7    33 1   
    21     7    34 1   
    22     7    35 1   
    23     8    23 1   
    24     8    24 1   
    25     8    36 1   
    26     8    61 1   
    27     9    23 1   
    28     9    27 1   
    29     9    28 1   
    30     9    37 1   
    31    10    13 ar  
    32    10    38 1   
    33    11    39 1   
    34    12    13 ar  
    35    12    40 1   
    36    14    41 1   
    37    14    42 1   
    38    14    43 1   
    39    15    44 1   
    40    18    22 ar  
    41    18    45 1   
    42    19    20 1   
    43    19    21 ar  
    44    21    22 ar  
    45    21    46 1   
    46    22    58 1   
    47    23    58 1   
    48    24    25 1   
    49    24    26 1   
    50    24    47 1   
    51    25    48 1   
    52    25    49 1   
    53    25    50 1   
    54    26    27 1   
    55    27    51 1   
    56    27    52 1   
    57    28    29 1   
    58    28    53 1   
    59    28    54 1   
    60    29    30 1   
    61    29    55 1   
    62    29    56 1   
    63    30    57 1   
    64    58    60 2   
@<TRIPOS>SUBSTRUCTURE
     1 QQW         1 TEMP              0 ****  ****    0 ROOT
