@<TRIPOS>MOLECULE
QQW
   61    64     1     0     0
SMALL
abcg2


@<TRIPOS>ATOM
      1 C4          12.7110   -13.4710    13.2770 ca         1 QQW       0.131400
      2 C5          11.7200   -12.7760    13.9540 ca         1 QQW      -0.017900
      3 C7          13.6400   -11.9420    14.3950 cc         1 QQW       0.779500
      4 C10         15.9120   -11.1880    14.7750 c3         1 QQW       0.304800
      5 C13         17.7630   -10.9840    11.4690 ca         1 QQW      -0.100000
      6 C15         16.1440    -9.2380    11.5320 ca         1 QQW       0.120000
      7 C20          8.1330   -12.6190    14.4890 c3         1 QQW       0.146900
      8 C24          9.1650   -14.6610    10.0960 c6         1 QQW       0.066000
      9 C28          9.0340   -17.0990    10.0350 c6         1 QQW       0.066700
     10 C16         15.7140    -9.6510    12.7830 ca         1 QQW      -0.090000
     11 C14         17.1660    -9.8900    10.8600 ca         1 QQW      -0.098000
     12 C12         17.3410   -11.4130    12.7190 ca         1 QQW      -0.088000
     13 C11         16.3170   -10.7500    13.3830 ca         1 QQW      -0.090300
     14 C33         16.6230   -10.3480    15.8300 c3         1 QQW      -0.108100
     15 N9          14.4820   -11.0990    14.9890 nu         1 QQW      -0.898400
     16 O6          12.3250   -11.7890    14.6710 os         1 QQW      -0.289700
     17 N8          13.9340   -12.9080    13.5810 nd         1 QQW      -0.650100
     18 C3          12.3750   -14.5460    12.4630 ca         1 QQW      -0.058000
     19 C18         10.3700   -13.0770    13.8860 ca         1 QQW       0.171100
     20 O19          9.5170   -12.3380    14.6050 os         1 QQW      -0.323100
     21 C1          10.0380   -14.1480    13.0580 ca         1 QQW      -0.192000
     22 C2          11.0250   -14.8540    12.3560 ca         1 QQW      -0.110600
     23 N23          9.6370   -15.9190    10.6540 n          1 QQW      -0.407800
     24 C25          7.6450   -14.5910    10.1570 c6         1 QQW       0.155300
     25 C32          7.1170   -13.3450     9.4830 c3         1 QQW      -0.090100
     26 O26          7.0850   -15.7230     9.5200 os         1 QQW      -0.447000
     27 C27          7.5190   -16.9250    10.1100 c6         1 QQW       0.146600
     28 C29          9.5320   -17.3520     8.6100 c3         1 QQW      -0.127400
     29 C30         11.0440   -17.4750     8.4900 c3         1 QQW       0.166600
     30 O31         11.5870   -18.5140     9.2720 oh         1 QQW      -0.672000
     31 H1          16.2120   -12.2320    14.9030 h1         1 QQW       0.078700
     32 H2          18.5580   -11.5090    10.9550 ha         1 QQW       0.120000
     33 H3           7.6190   -11.9040    15.1260 h1         1 QQW       0.044033
     34 H4           7.7800   -12.4950    13.4620 h1         1 QQW       0.044033
     35 H5           7.8940   -13.6300    14.8280 h1         1 QQW       0.044033
     36 H7           9.6010   -13.8180    10.6260 h1         1 QQW       0.063200
     37 H8           9.2770   -17.9630    10.6550 h1         1 QQW       0.086700
     38 H9          14.9120    -9.1220    13.2820 ha         1 QQW       0.126000
     39 H10         17.4850    -9.5570     9.8830 ha         1 QQW       0.130000
     40 H11         17.8120   -12.2740    13.1790 ha         1 QQW       0.120000
     41 H12         16.3560   -10.6780    16.8340 hc         1 QQW       0.050367
     42 H13         17.7010   -10.4460    15.7160 hc         1 QQW       0.050367
     43 H14         16.3690    -9.2920    15.7280 hc         1 QQW       0.050367
     44 H15         14.1110   -10.3840    15.5940 hn         1 QQW       0.515000
     45 H16         13.1290   -15.1070    11.9280 ha         1 QQW       0.150000
     46 H17          9.0070   -14.4610    12.9680 ha         1 QQW       0.124000
     47 H18          7.3450   -14.5880    11.2180 h1         1 QQW       0.032700
     48 H19          7.5260   -12.4560     9.9640 hc         1 QQW       0.048033
     49 H20          7.3930   -13.3160     8.4280 hc         1 QQW       0.048033
     50 H21          6.0310   -13.2930     9.5570 hc         1 QQW       0.048033
     51 H22          7.2100   -16.9690    11.1640 h1         1 QQW       0.055200
     52 H23          7.0270   -17.7440     9.5830 h1         1 QQW       0.055200
     53 H24          9.1940   -16.5610     7.9360 hc         1 QQW       0.056700
     54 H25          9.0610   -18.2740     8.2580 hc         1 QQW       0.056700
     55 H26         11.2930   -17.6890     7.4480 h1         1 QQW       0.035700
     56 H27         11.5140   -16.5100     8.7250 h1         1 QQW       0.035700
     57 H28         11.5220   -18.2320    10.1970 ho         1 QQW       0.470000
     58 C21         10.6380   -16.0470    11.5450 c          1 QQW       0.622700
     59 CL1         15.3800    -7.8670    10.7890 cl         1 QQW      -0.208000
     60 O22         11.2230   -17.1140    11.7370 o          1 QQW      -0.612100
     61 H6           9.4930   -14.5840     9.0540 h1         1 QQW       0.063200
@<TRIPOS>BOND
     1     1     2 ar  
     2     1    17 1   
     3     1    18 ar  
     4     2    16 1   
     5     2    19 ar  
     6     3    15 1   
     7     3    16 1   
     8     3    17 2   
     9     4    13 1   
    10     4    14 1   
    11     4    15 1   
    12     4    31 1   
    13     5    11 ar  
    14     5    12 ar  
    15     5    32 1   
    16     6    10 ar  
    17     6    11 ar  
    18     6    59 1   
    19     7    20 1   
    20     7    33 1   
    21     7    34 1   
    22     7    35 1   
    23     8    23 1   
    24     8    24 1   
    25     8    36 1   
    26     8    61 1   
    27     9    23 1   
    28     9    27 1   
    29     9    28 1   
    30     9    37 1   
    31    10    13 ar  
    32    10    38 1   
    33    11    39 1   
    34    12    13 ar  
    35    12    40 1   
    36    14    41 1   
    37    14    42 1   
    38    14    43 1   
    39    15    44 1   
    40    18    22 ar  
    41    18    45 1   
    42    19    20 1   
    43    19    21 ar  
    44    21    22 ar  
    45    21    46 1   
    46    22    58 1   
    47    23    58 1   
    48    24    25 1   
    49    24    26 1   
    50    24    47 1   
    51    25    48 1   
    52    25    49 1   
    53    25    50 1   
    54    26    27 1   
    55    27    51 1   
    56    27    52 1   
    57    28    29 1   
    58    28    53 1   
    59    28    54 1   
    60    29    30 1   
    61    29    55 1   
    62    29    56 1   
    63    30    57 1   
    64    58    60 2   
@<TRIPOS>SUBSTRUCTURE
     1 QQW         1 TEMP              0 ****  ****    0 ROOT
