@<TRIPOS>MOLECULE
QQX
   34    37     1     0     0
SMALL
No Charge or Current Charge


@<TRIPOS>ATOM
      1 OP3          2.5040     1.4240    -1.1540 oh         1 QQX      -0.499400
      2 S1P          4.1830     2.8070     0.9640 s          1 QQX      -0.487000
      3 O5           2.2090    -3.6860    -1.9840 oh         1 QQX      -0.700000
      4 C5           2.4880    -3.1890    -0.6610 c3         1 QQX       0.175600
      5 C4           1.9500    -1.7440    -0.4720 c5         1 QQX       0.149300
      6 O4           0.5120    -1.7320    -0.3950 os         1 QQX      -0.427000
      7 C3           2.3940    -1.0560     0.8610 c5         1 QQX      -0.080700
      8 O3           3.4810    -0.1370     0.5800 os         1 QQX      -0.299400
      9 C2           1.1500    -0.1680     1.2580 c5         1 QQX      -0.100700
     10 O2           1.5900     1.2150     1.1850 os         1 QQX      -0.295400
     11 C1           0.1280    -0.4480     0.1070 c5         1 QQX       0.295300
     12 N9          -1.2910    -0.4670     0.4470 na         1 QQX      -0.286300
     13 C8          -1.8430    -0.9180     1.6510 cc         1 QQX       0.415700
     14 N7          -3.1810    -0.7610     1.6700 nd         1 QQX      -0.541100
     15 C7          -3.4530    -0.1920     0.4220 ca         1 QQX      -0.098600
     16 C6          -4.6870     0.2030    -0.1350 ca         1 QQX       0.453900
     17 N6          -5.8670     0.0650     0.5260 nv         1 QQX      -1.055900
     18 N1          -4.7530     0.7500    -1.3590 nb         1 QQX      -0.297000
     19 C10         -3.5750     0.8890    -2.0140 ca         1 QQX       0.191900
     20 C9          -2.3180    -0.0080    -0.3260 ca         1 QQX       0.144500
     21 N3          -2.3480     0.5370    -1.5590 nb         1 QQX      -0.228000
     22 P            2.9790     1.3860     0.3800 p5         1 QQX       1.126200
     23 HP3          2.0720     2.2890    -1.2540 ho         1 QQX       0.301000
     24 H5           2.5180    -4.6220    -2.0100 ho         1 QQX       0.514000
     25 H5'1         2.0350    -3.8390     0.1010 h1         1 QQX       0.033700
     26 H5'2         3.5720    -3.1800    -0.4860 h1         1 QQX       0.033700
     27 H4           2.2570    -1.1520    -1.3460 h1         1 QQX       0.090700
     28 H3           2.6810    -1.7700     1.6470 h1         1 QQX       0.109700
     29 H1           0.2390     0.2970    -0.6920 h2         1 QQX       0.109700
     30 H2           0.7700    -0.3960     2.2620 h1         1 QQX       0.118700
     31 H8          -1.2420    -1.3420     2.4470 h5         1 QQX       0.068800
     32 H61N        -5.8110    -0.1340     1.5220 hn         1 QQX       0.507500
     33 H62N        -6.6590     0.6230     0.2180 hn         1 QQX       0.507500
     34 H7          -3.6170     1.3310    -3.0080 h5         1 QQX       0.049100
@<TRIPOS>BOND
     1     1    22 1   
     2     1    23 1   
     3     2    22 2   
     4     3     4 1   
     5     3    24 1   
     6     4     5 1   
     7     4    25 1   
     8     4    26 1   
     9     5     6 1   
    10     5     7 1   
    11     5    27 1   
    12     6    11 1   
    13     7     8 1   
    14     7     9 1   
    15     7    28 1   
    16     8    22 1   
    17     9    10 1   
    18     9    11 1   
    19     9    30 1   
    20    10    22 1   
    21    11    12 1   
    22    11    29 1   
    23    12    13 1   
    24    12    20 1   
    25    13    14 2   
    26    13    31 1   
    27    14    15 1   
    28    15    16 ar  
    29    15    20 ar  
    30    16    17 1   
    31    16    18 ar  
    32    17    32 1   
    33    17    33 1   
    34    18    19 ar  
    35    19    21 ar  
    36    19    34 1   
    37    20    21 ar  
@<TRIPOS>SUBSTRUCTURE
     1 QQX         1 TEMP              0 ****  ****    0 ROOT
