@<TRIPOS>MOLECULE
QQX
   34    37     1     0     0
SMALL
bcc


@<TRIPOS>ATOM
      1 OP3          2.5510     1.6300    -1.3720 oh         1 QQX      -0.700400
      2 S1P          3.8430     2.9460     0.9680 s          1 QQX      -0.487000
      3 O5           2.1230    -4.0080    -1.4020 oh         1 QQX      -0.577800
      4 C5           2.4930    -3.2380    -0.2890 c3         1 QQX       0.152400
      5 C4           1.9590    -1.8390    -0.4650 c5         1 QQX       0.126100
      6 O4           0.5400    -1.8590    -0.4580 os         1 QQX      -0.380600
      7 C3           2.3450    -0.9030     0.6900 c5         1 QQX       0.096100
      8 O3           3.3610     0.0260     0.3370 os         1 QQX      -0.476200
      9 C2           1.0570    -0.1000     0.9680 c5         1 QQX       0.076100
     10 O2           1.3720     1.2760     0.8890 os         1 QQX      -0.472200
     11 C1           0.1000    -0.5700    -0.1410 c5         1 QQX       0.242800
     12 N9          -1.2750    -0.6360     0.2480 na         1 QQX      -0.257000
     13 C8          -1.8300    -1.4320     1.2180 cc         1 QQX       0.415700
     14 N7          -3.1140    -1.2800     1.3290 nd         1 QQX      -0.541100
     15 C7          -3.4330    -0.3350     0.3870 ca         1 QQX      -0.229200
     16 C6          -4.6460     0.2710     0.0090 ca         1 QQX       0.782200
     17 N6          -5.8140    -0.0330     0.5760 nv         1 QQX      -0.945500
     18 N1          -4.6110     1.1790    -0.9730 nb         1 QQX      -0.823000
     19 C10         -3.4490     1.4710    -1.5480 ca         1 QQX       0.717900
     20 C9          -2.3050     0.0760    -0.3010 ca         1 QQX       0.472800
     21 N3          -2.2520     0.9760    -1.2780 nb         1 QQX      -0.754000
     22 P            2.8150     1.5350     0.2000 p5         1 QQX       1.126200
     23 HP3          2.5090     2.5330    -1.7140 ho         1 QQX       0.502000
     24 H5           2.4430    -4.9050    -1.2660 ho         1 QQX       0.415000
     25 H5'1         2.1070    -3.6520     0.6520 h1         1 QQX       0.033700
     26 H5'2         3.5830    -3.1620    -0.1800 h1         1 QQX       0.033700
     27 H4           2.3250    -1.4150    -1.4110 h1         1 QQX       0.090700
     28 H3           2.6830    -1.4500     1.5720 h1         1 QQX       0.109700
     29 H1           0.1510     0.1120    -1.0000 h2         1 QQX       0.109700
     30 H2           0.6520    -0.3010     1.9610 h1         1 QQX       0.118700
     31 H8          -1.2320    -2.1120     1.8060 h5         1 QQX       0.068800
     32 H61N        -5.8560    -0.6340     1.3800 hn         1 QQX       0.452300
     33 H62N        -6.6370     0.4940     0.3380 hn         1 QQX       0.452300
     34 H7          -3.4900     2.2130    -2.3370 h5         1 QQX       0.049100
@<TRIPOS>BOND
     1     1    22 1   
     2     1    23 1   
     3     2    22 2   
     4     3     4 1   
     5     3    24 1   
     6     4     5 1   
     7     4    25 1   
     8     4    26 1   
     9     5     6 1   
    10     5     7 1   
    11     5    27 1   
    12     6    11 1   
    13     7     8 1   
    14     7     9 1   
    15     7    28 1   
    16     8    22 1   
    17     9    10 1   
    18     9    11 1   
    19     9    30 1   
    20    10    22 1   
    21    11    12 1   
    22    11    29 1   
    23    12    13 1   
    24    12    20 1   
    25    13    14 2   
    26    13    31 1   
    27    14    15 1   
    28    15    16 ar  
    29    15    20 ar  
    30    16    17 1   
    31    16    18 ar  
    32    17    32 1   
    33    17    33 1   
    34    18    19 ar  
    35    19    21 ar  
    36    19    34 1   
    37    20    21 ar  
@<TRIPOS>SUBSTRUCTURE
     1 QQX         1 TEMP              0 ****  ****    0 ROOT
