@<TRIPOS>MOLECULE
QQY
   34    37     1     0     0
SMALL
No Charge or Current Charge


@<TRIPOS>ATOM
      1 OP3          3.8490     2.1590     1.5930 o          1 QQY      -0.447000
      2 S1P          2.5250     1.5800    -1.1000 sh         1 QQY      -0.476200
      3 O5           1.9990    -3.6400    -1.8730 oh         1 QQY      -0.699000
      4 C5           2.2180    -3.2370    -0.5080 c3         1 QQY       0.175600
      5 C4           1.7630    -1.7710    -0.2720 c5         1 QQY       0.143300
      6 O4           0.3250    -1.6660    -0.3040 os         1 QQY      -0.430000
      7 C3           2.1570    -1.1920     1.1280 c5         1 QQY       0.114300
      8 O3           3.3250    -0.3380     0.9850 os         1 QQY      -0.517400
      9 C2           0.9390    -0.2560     1.5070 c5         1 QQY       0.106300
     10 O2           1.4480     1.1040     1.5890 os         1 QQY      -0.509400
     11 C1          -0.0160    -0.3960     0.2700 c5         1 QQY       0.316300
     12 N9          -1.4590    -0.3470     0.5000 na         1 QQY      -0.297300
     13 C8          -2.1330    -0.8240     1.6290 cc         1 QQY       0.410700
     14 N7          -3.4560    -0.5860     1.5500 nd         1 QQY      -0.545100
     15 C7          -3.5920     0.0650     0.3200 ca         1 QQY      -0.102600
     16 C6          -4.7510     0.5610    -0.3110 ca         1 QQY       0.454900
     17 N6          -5.9880     0.4600     0.2440 nv         1 QQY      -1.061900
     18 N1          -4.6870     1.1570    -1.5120 nb         1 QQY      -0.299000
     19 C10         -3.4520     1.2540    -2.0640 ca         1 QQY       0.189900
     20 C9          -2.3910     0.2130    -0.3260 ca         1 QQY       0.140500
     21 N3          -2.2890     0.8110    -1.5290 nb         1 QQY      -0.219000
     22 P            2.9110     1.2160     0.9280 p5         1 QQY       1.064200
     23 H1P          3.3730     2.6300    -0.9890 hs         1 QQY       0.327800
     24 H5           2.2520    -4.5910    -1.9370 ho         1 QQY       0.512000
     25 H5'1         1.6740    -3.8940     0.1830 h1         1 QQY       0.032700
     26 H5'2         3.2870    -3.3110    -0.2640 h1         1 QQY       0.032700
     27 H4           2.1780    -1.1570    -1.0820 h1         1 QQY       0.089700
     28 H3           2.3370    -1.9720     1.8820 h1         1 QQY       0.111700
     29 H1           0.1980     0.3980    -0.4560 h2         1 QQY       0.133700
     30 H2           0.4750    -0.5490     2.4570 h1         1 QQY       0.110700
     31 H8          -1.6270    -1.3260     2.4450 h5         1 QQY       0.067800
     32 H61N        -6.0810    -0.1770     1.0320 hn         1 QQY       0.509000
     33 H62N        -6.7970     0.5510    -0.3650 hn         1 QQY       0.509000
     34 H7          -3.3890     1.7380    -3.0370 h5         1 QQY       0.051100
@<TRIPOS>BOND
     1     1    22 2   
     2     2    22 1   
     3     2    23 1   
     4     3     4 1   
     5     3    24 1   
     6     4     5 1   
     7     4    25 1   
     8     4    26 1   
     9     5     6 1   
    10     5     7 1   
    11     5    27 1   
    12     6    11 1   
    13     7     8 1   
    14     7     9 1   
    15     7    28 1   
    16     8    22 1   
    17     9    10 1   
    18     9    11 1   
    19     9    30 1   
    20    10    22 1   
    21    11    12 1   
    22    11    29 1   
    23    12    13 1   
    24    12    20 1   
    25    13    14 2   
    26    13    31 1   
    27    14    15 1   
    28    15    16 ar  
    29    15    20 ar  
    30    16    17 1   
    31    16    18 ar  
    32    17    32 1   
    33    17    33 1   
    34    18    19 ar  
    35    19    21 ar  
    36    19    34 1   
    37    20    21 ar  
@<TRIPOS>SUBSTRUCTURE
     1 QQY         1 TEMP              0 ****  ****    0 ROOT
