@<TRIPOS>MOLECULE
QQY
   34    37     1     0     0
SMALL
abcg2


@<TRIPOS>ATOM
      1 OP3          3.5580     2.2910     1.6560 o          1 QQY      -0.447000
      2 S1P          3.9770     1.3470    -1.1550 sh         1 QQY      -0.476200
      3 O5           2.1230    -3.8280    -1.2370 oh         1 QQY      -0.699000
      4 C5           2.1440    -3.1440    -0.0120 c3         1 QQY       0.175600
      5 C4           1.7640    -1.7050    -0.2520 c5         1 QQY       0.143300
      6 O4           0.4170    -1.6250    -0.6850 os         1 QQY      -0.430000
      7 C3           1.7870    -0.8570     1.0220 c5         1 QQY       0.114300
      8 O3           3.0310    -0.2180     1.2520 os         1 QQY      -0.517400
      9 C2           0.7520     0.2350     0.7290 c5         1 QQY       0.106300
     10 O2           1.5000     1.3500     0.2460 os         1 QQY      -0.509400
     11 C1          -0.1150    -0.3630    -0.3930 c5         1 QQY       0.316300
     12 N9          -1.4890    -0.5430    -0.0110 na         1 QQY      -0.297300
     13 C8          -2.0050    -1.4920     0.8330 cc         1 QQY       0.410700
     14 N7          -3.2850    -1.3730     1.0140 nd         1 QQY      -0.545100
     15 C7          -3.6400    -0.2850     0.2570 ca         1 QQY      -0.102600
     16 C6          -4.8680     0.3620     0.0240 ca         1 QQY       0.454900
     17 N6          -6.0120    -0.0350     0.5810 nv         1 QQY      -1.061900
     18 N1          -4.8700     1.4260    -0.7880 nb         1 QQY      -0.299000
     19 C10         -3.7270     1.8250    -1.3390 ca         1 QQY       0.189900
     20 C9          -2.5370     0.2470    -0.3890 ca         1 QQY       0.140500
     21 N3          -2.5200     1.3030    -1.1970 nb         1 QQY      -0.219000
     22 P            3.0500     1.3000     0.6950 p5         1 QQY       1.064200
     23 H1P          5.1680     1.7420    -0.6870 hs         1 QQY       0.327800
     24 H5           2.4140    -4.7310    -1.0820 ho         1 QQY       0.512000
     25 H5'1         1.4510    -3.5790     0.7210 h1         1 QQY       0.032700
     26 H5'2         3.1410    -3.1470     0.4470 h1         1 QQY       0.032700
     27 H4           2.4360    -1.2700    -1.0060 h1         1 QQY       0.089700
     28 H3           1.5310    -1.4410     1.9080 h1         1 QQY       0.111700
     29 H1          -0.1120     0.3040    -1.2620 h2         1 QQY       0.133700
     30 H2           0.1660     0.5430     1.5950 h1         1 QQY       0.110700
     31 H8          -1.3870    -2.2580     1.2770 h5         1 QQY       0.067800
     32 H61N        -6.0500    -0.8530     1.1640 hn         1 QQY       0.509000
     33 H62N        -6.8700     0.4440     0.3730 hn         1 QQY       0.509000
     34 H7          -3.7980     2.6930    -1.9850 h5         1 QQY       0.051100
@<TRIPOS>BOND
     1     1    22 2   
     2     2    22 1   
     3     2    23 1   
     4     3     4 1   
     5     3    24 1   
     6     4     5 1   
     7     4    25 1   
     8     4    26 1   
     9     5     6 1   
    10     5     7 1   
    11     5    27 1   
    12     6    11 1   
    13     7     8 1   
    14     7     9 1   
    15     7    28 1   
    16     8    22 1   
    17     9    10 1   
    18     9    11 1   
    19     9    30 1   
    20    10    22 1   
    21    11    12 1   
    22    11    29 1   
    23    12    13 1   
    24    12    20 1   
    25    13    14 2   
    26    13    31 1   
    27    14    15 1   
    28    15    16 ar  
    29    15    20 ar  
    30    16    17 1   
    31    16    18 ar  
    32    17    32 1   
    33    17    33 1   
    34    18    19 ar  
    35    19    21 ar  
    36    19    34 1   
    37    20    21 ar  
@<TRIPOS>SUBSTRUCTURE
     1 QQY         1 TEMP              0 ****  ****    0 ROOT
