@<TRIPOS>MOLECULE
QR0
   45    48     1     0     0
SMALL
abcg2


@<TRIPOS>ATOM
      1 C18        -50.1760   -28.9590     6.4370 ca         1 QR0       0.239000
      2 C16        -49.9350   -29.0390     4.0430 ca         1 QR0      -0.044000
      3 C17        -50.7480   -28.9560     5.1630 ca         1 QR0      -0.160000
      4 C15        -48.5480   -29.1400     4.1560 ca         1 QR0      -0.143600
      5 C14        -47.7290   -29.2150     2.9070 c          1 QR0       0.600700
      6 C12        -45.5180   -29.7230     1.9740 c5         1 QR0       0.161000
      7 C11        -45.4820   -30.9710     1.1120 ca         1 QR0      -0.050300
      8 C10        -46.5110   -31.8370     0.7700 ca         1 QR0      -0.114000
      9 C02        -43.6700   -30.4200     3.7200 c          1 QR0       0.723000
     10 C03        -44.0400   -29.6020     2.4420 c5         1 QR0      -0.205700
     11 C04        -43.2660   -30.0920     1.2000 c5         1 QR0      -0.008100
     12 C05        -44.1840   -31.1480     0.6400 ca         1 QR0      -0.088300
     13 C06        -43.9010   -32.2080    -0.2130 ca         1 QR0       0.130100
     14 C08        -44.9230   -33.0940    -0.5640 ca         1 QR0      -0.211000
     15 C09        -46.2120   -32.9080    -0.0720 ca         1 QR0      -0.095000
     16 C21        -52.8580   -30.3700     7.4120 cc         1 QR0      -0.241000
     17 C22        -54.2040   -30.1440     7.3650 cd         1 QR0       0.228900
     18 C24        -53.2980   -28.2000     7.5390 cc         1 QR0       0.432400
     19 C25        -48.7860   -29.0540     6.5640 ca         1 QR0      -0.160000
     20 C26        -47.9880   -29.1440     5.4380 ca         1 QR0      -0.044000
     21 N13        -46.4880   -29.7050     3.0420 ns         1 QR0      -0.480900
     22 N19        -50.9460   -28.8020     7.5980 nu         1 QR0      -0.768500
     23 N20        -52.2920   -29.1150     7.5290 na         1 QR0       0.021000
     24 N23        -54.4690   -28.7890     7.4420 nd         1 QR0      -0.691000
     25 O01        -42.5200   -30.9020     3.7810 o          1 QR0      -0.723500
     26 O07        -42.6190   -32.3480    -0.6690 oh         1 QR0      -0.537100
     27 O27        -48.1910   -28.8430     1.8180 o          1 QR0      -0.663100
     28 O28        -44.5370   -30.4950     4.6410 o          1 QR0      -0.723500
     29 H161       -50.3790   -29.0290     3.0570 ha         1 QR0       0.145000
     30 H171       -51.8210   -28.8880     5.0470 ha         1 QR0       0.117500
     31 H121       -45.7390   -28.8750     1.3180 h1         1 QR0       0.055700
     32 H101       -47.5130   -31.6900     1.1500 ha         1 QR0       0.121000
     33 H031       -43.8060   -28.5610     2.6780 hc         1 QR0       0.047700
     34 H042       -43.1330   -29.2760     0.4810 hc         1 QR0       0.057200
     35 H041       -42.2820   -30.4710     1.4640 hc         1 QR0       0.057200
     36 H081       -44.7000   -33.9310    -1.2170 ha         1 QR0       0.093000
     37 H091       -46.9890   -33.6100    -0.3510 ha         1 QR0       0.095000
     38 H211       -52.2560   -31.2610     7.3760 h4         1 QR0       0.163000
     39 H221       -54.9950   -30.8720     7.2820 h4         1 QR0       0.035100
     40 H241       -53.1020   -27.1430     7.6190 h5         1 QR0       0.065100
     41 H251       -48.3380   -29.0510     7.5510 ha         1 QR0       0.117500
     42 H261       -46.9160   -29.2000     5.5710 ha         1 QR0       0.145000
     43 H131       -46.0950   -30.0230     3.9300 hn         1 QR0       0.387500
     44 H191       -50.5200   -29.1460     8.4490 hn         1 QR0       0.472000
     45 H071       -42.5560   -33.1320    -1.2300 ho         1 QR0       0.443000
@<TRIPOS>BOND
     1     1     3 ar  
     2     1    19 ar  
     3     1    22 1   
     4     2     3 ar  
     5     2     4 ar  
     6     2    29 1   
     7     3    30 1   
     8     4     5 1   
     9     4    20 ar  
    10     5    21 1   
    11     5    27 2   
    12     6     7 1   
    13     6    10 1   
    14     6    21 1   
    15     6    31 1   
    16     7     8 ar  
    17     7    12 ar  
    18     8    15 ar  
    19     8    32 1   
    20     9    10 1   
    21     9    25 1   
    22     9    28 1   
    23    10    11 1   
    24    10    33 1   
    25    11    12 1   
    26    11    34 1   
    27    11    35 1   
    28    12    13 ar  
    29    13    14 ar  
    30    13    26 1   
    31    14    15 ar  
    32    14    36 1   
    33    15    37 1   
    34    16    17 2   
    35    16    23 1   
    36    16    38 1   
    37    17    24 1   
    38    17    39 1   
    39    18    23 1   
    40    18    24 2   
    41    18    40 1   
    42    19    20 ar  
    43    19    41 1   
    44    20    42 1   
    45    21    43 1   
    46    22    23 1   
    47    22    44 1   
    48    26    45 1   
@<TRIPOS>SUBSTRUCTURE
     1 QR0         1 TEMP              0 ****  ****    0 ROOT
