@<TRIPOS>MOLECULE
QR0
   45    48     1     0     0
SMALL
No Charge or Current Charge


@<TRIPOS>ATOM
      1 C18        -50.2450   -29.6550     6.4260 ca         1 QR0       0.239000
      2 C16        -49.6920   -28.4350     4.3860 ca         1 QR0      -0.044000
      3 C17        -50.4700   -28.5810     5.5480 ca         1 QR0      -0.160000
      4 C15        -48.6690   -29.3600     4.0770 ca         1 QR0      -0.143600
      5 C14        -47.8540   -29.1670     2.8120 c          1 QR0       0.600700
      6 C12        -46.0090   -29.9460     1.3900 c5         1 QR0       0.161000
      7 C11        -45.3560   -31.2050     0.8810 ca         1 QR0      -0.050300
      8 C10        -45.9970   -32.4200     0.5870 ca         1 QR0      -0.114000
      9 C02        -44.4420   -29.2640     3.3950 c          1 QR0       0.723000
     10 C03        -44.7430   -29.1130     1.8750 c5         1 QR0      -0.205700
     11 C04        -43.5140   -29.6720     1.0480 c5         1 QR0      -0.008100
     12 C05        -43.9970   -31.0540     0.6830 ca         1 QR0      -0.088300
     13 C06        -43.2210   -32.1170     0.1860 ca         1 QR0       0.130100
     14 C08        -43.8460   -33.3430    -0.1070 ca         1 QR0      -0.211000
     15 C09        -45.2340   -33.4950     0.0930 ca         1 QR0      -0.095000
     16 C21        -53.4200   -29.7100     7.1750 cc         1 QR0      -0.241000
     17 C22        -54.4170   -28.8810     7.6240 cd         1 QR0       0.228900
     18 C24        -52.6130   -28.1680     8.5710 cc         1 QR0       0.432400
     19 C25        -49.2280   -30.5750     6.1320 ca         1 QR0      -0.160000
     20 C26        -48.4450   -30.4360     4.9720 ca         1 QR0      -0.044000
     21 N13        -46.8940   -30.1230     2.5450 ns         1 QR0      -0.480900
     22 N19        -51.0010   -29.8230     7.5920 nu         1 QR0      -0.768500
     23 N20        -52.2760   -29.2570     7.7750 na         1 QR0       0.021000
     24 N23        -53.9190   -27.9250     8.4910 nd         1 QR0      -0.691000
     25 O01        -44.2210   -30.3690     3.8720 o          1 QR0      -0.723500
     26 O07        -41.8810   -31.9710    -0.0160 oh         1 QR0      -0.537100
     27 O27        -48.0440   -28.2130     2.0670 o          1 QR0      -0.663100
     28 O28        -44.4120   -28.2530     4.0800 o          1 QR0      -0.723500
     29 H161       -49.8900   -27.5950     3.7230 ha         1 QR0       0.145000
     30 H171       -51.2470   -27.8520     5.7580 ha         1 QR0       0.117500
     31 H121       -46.5080   -29.4490     0.5460 h1         1 QR0       0.055700
     32 H101       -47.0700   -32.5290     0.7350 ha         1 QR0       0.121000
     33 H031       -44.8930   -28.0470     1.6740 hc         1 QR0       0.047700
     34 H042       -43.3320   -29.0720     0.1490 hc         1 QR0       0.057200
     35 H041       -42.5810   -29.6790     1.6260 hc         1 QR0       0.057200
     36 H081       -43.2660   -34.1780    -0.4920 ha         1 QR0       0.093000
     37 H091       -45.7170   -34.4430    -0.1380 ha         1 QR0       0.095000
     38 H211       -53.4460   -30.5520     6.4970 h4         1 QR0       0.163000
     39 H221       -55.4700   -28.9190     7.3710 h4         1 QR0       0.035100
     40 H241       -51.8820   -27.6230     9.1570 h5         1 QR0       0.065100
     41 H251       -49.0390   -31.4070     6.8050 ha         1 QR0       0.117500
     42 H261       -47.6690   -31.1750     4.7910 ha         1 QR0       0.145000
     43 H131       -46.7770   -30.8720     3.2120 hn         1 QR0       0.387500
     44 H191       -50.8010   -30.6390     8.1770 hn         1 QR0       0.472000
     45 H071       -41.5300   -32.8190    -0.3620 ho         1 QR0       0.443000
@<TRIPOS>BOND
     1     1     3 ar  
     2     1    19 ar  
     3     1    22 1   
     4     2     3 ar  
     5     2     4 ar  
     6     2    29 1   
     7     3    30 1   
     8     4     5 1   
     9     4    20 ar  
    10     5    21 1   
    11     5    27 2   
    12     6     7 1   
    13     6    10 1   
    14     6    21 1   
    15     6    31 1   
    16     7     8 ar  
    17     7    12 ar  
    18     8    15 ar  
    19     8    32 1   
    20     9    10 1   
    21     9    25 1   
    22     9    28 1   
    23    10    11 1   
    24    10    33 1   
    25    11    12 1   
    26    11    34 1   
    27    11    35 1   
    28    12    13 ar  
    29    13    14 ar  
    30    13    26 1   
    31    14    15 ar  
    32    14    36 1   
    33    15    37 1   
    34    16    17 2   
    35    16    23 1   
    36    16    38 1   
    37    17    24 1   
    38    17    39 1   
    39    18    23 1   
    40    18    24 2   
    41    18    40 1   
    42    19    20 ar  
    43    19    41 1   
    44    20    42 1   
    45    21    43 1   
    46    22    23 1   
    47    22    44 1   
    48    26    45 1   
@<TRIPOS>SUBSTRUCTURE
     1 QR0         1 TEMP              0 ****  ****    0 ROOT
