@<TRIPOS>MOLECULE
QR2
   21    22     1     0     0
SMALL
No Charge or Current Charge


@<TRIPOS>ATOM
      1 C01         26.4730    65.9560    72.0680 ca         1 QR2      -0.127900
      2 C02         25.1350    66.5560    72.0560 cc         1 QR2       0.558200
      3 C05         23.6260    68.1780    72.3700 c          1 QR2       0.662100
      4 C08         26.6580    64.6280    71.6370 ca         1 QR2      -0.033000
      5 C09         27.9370    64.0540    71.6490 ca         1 QR2      -0.120000
      6 C10         29.0470    64.7910    72.0870 ca         1 QR2       0.179000
      7 C12         28.8880    66.1280    72.5250 ca         1 QR2      -0.204300
      8 C13         30.0950    66.9490    73.0080 c3         1 QR2       0.367300
      9 C17         27.5910    66.6970    72.5090 ca         1 QR2      -0.015000
     10 F14         29.7630    68.2040    73.3890 f          1 QR2      -0.104667
     11 F15         31.0310    67.0810    72.0420 f          1 QR2      -0.104667
     12 F16         30.6970    66.3750    74.0750 f          1 QR2      -0.104667
     13 N03         23.9780    66.0150    71.6780 nd         1 QR2      -0.469300
     14 N04         23.0950    67.0300    71.8840 ns         1 QR2      -0.392400
     15 O06         23.0770    69.2310    72.6450 o          1 QR2      -0.489000
     16 O07         24.9380    67.8500    72.4720 os         1 QR2      -0.393700
     17 Cl1         30.6220    63.9930    72.0690 cl         1 QR2      -0.153000
     18 H1          25.8110    64.0360    71.2930 ha         1 QR2       0.144000
     19 H2          28.0710    63.0280    71.3150 ha         1 QR2       0.143000
     20 H3          27.4430    67.7240    72.8410 ha         1 QR2       0.156000
     21 H4          22.0910    66.9740    71.7000 hn         1 QR2       0.502000
@<TRIPOS>BOND
     1     1     2 1   
     2     1     4 ar  
     3     1     9 ar  
     4     2    13 2   
     5     2    16 1   
     6     3    14 1   
     7     3    15 2   
     8     3    16 1   
     9     4     5 ar  
    10     4    18 1   
    11     5     6 ar  
    12     5    19 1   
    13     6     7 ar  
    14     6    17 1   
    15     7     8 1   
    16     7     9 ar  
    17     8    10 1   
    18     8    11 1   
    19     8    12 1   
    20     9    20 1   
    21    13    14 1   
    22    14    21 1   
@<TRIPOS>SUBSTRUCTURE
     1 QR2         1 TEMP              0 ****  ****    0 ROOT
