@<TRIPOS>MOLECULE
QR2
   21    22     1     0     0
SMALL
bcc


@<TRIPOS>ATOM
      1 C01         26.4890    65.9840    72.0800 ca         1 QR2      -0.127900
      2 C02         25.1670    66.5840    72.0710 cc         1 QR2       0.558200
      3 C05         23.6680    68.1440    72.3610 c          1 QR2       0.804600
      4 C08         26.6520    64.6700    71.6480 ca         1 QR2      -0.051000
      5 C09         27.9040    64.0890    71.6530 ca         1 QR2      -0.138000
      6 C10         29.0030    64.8150    72.0880 ca         1 QR2       0.087400
      7 C12         28.8570    66.1310    72.5230 ca         1 QR2      -0.204300
      8 C13         30.0390    66.9290    72.9940 c3         1 QR2       0.731200
      9 C17         27.5950    66.7070    72.5140 ca         1 QR2      -0.033000
     10 F14         29.6890    68.1610    73.3670 f          1 QR2      -0.225967
     11 F15         30.9620    67.0580    72.0350 f          1 QR2      -0.225967
     12 F16         30.6360    66.3580    74.0450 f          1 QR2      -0.225967
     13 N03         24.0730    66.0330    71.7060 nd         1 QR2      -0.469300
     14 N04         23.1410    66.9980    71.8830 ns         1 QR2      -0.345900
     15 O06         23.1750    69.2010    72.6430 o          1 QR2      -0.564500
     16 O07         25.0030    67.8590    72.4790 os         1 QR2      -0.393700
     17 CL1         30.5410    64.0400    72.0760 cl         1 QR2      -0.061400
     18 H1          25.8020    64.0950    71.3080 ha         1 QR2       0.162000
     19 H2          28.0290    63.0690    71.3180 ha         1 QR2       0.161000
     20 H3          27.4720    67.7270    72.8470 ha         1 QR2       0.174000
     21 H4          22.1710    66.8250    71.6730 hn         1 QR2       0.388500
@<TRIPOS>BOND
     1     1     2 1   
     2     1     4 ar  
     3     1     9 ar  
     4     2    13 2   
     5     2    16 1   
     6     3    14 1   
     7     3    15 2   
     8     3    16 1   
     9     4     5 ar  
    10     4    18 1   
    11     5     6 ar  
    12     5    19 1   
    13     6     7 ar  
    14     6    17 1   
    15     7     8 1   
    16     7     9 ar  
    17     8    10 1   
    18     8    11 1   
    19     8    12 1   
    20     9    20 1   
    21    13    14 1   
    22    14    21 1   
@<TRIPOS>SUBSTRUCTURE
     1 QR2         1 TEMP              0 ****  ****    0 ROOT
