@<TRIPOS>MOLECULE
QR3
   54    58     1     0     0
SMALL
No Charge or Current Charge


@<TRIPOS>ATOM
      1 N          133.1880   164.0210   102.6280 nb         1 QR3      -0.283000
      2 C          129.9040   163.2530   101.0790 c3         1 QR3      -0.145400
      3 O          137.3560   162.1020   103.3360 os         1 QR3      -0.090700
      4 C1         131.3360   163.0670   101.5440 ca         1 QR3       0.300300
      5 C10        133.8100   163.9170   107.1350 cc         1 QR3       0.306500
      6 C11        132.7120   164.8370   107.3660 cc         1 QR3       0.132400
      7 C12        132.5830   165.9040   106.5150 cd         1 QR3      -0.404200
      8 C13        133.5110   166.0960   105.3980 c          1 QR3       0.561200
      9 C14        131.5100   163.3620   109.0750 cy         1 QR3       0.198800
     10 C15        130.2150   164.0780   109.6290 cy         1 QR3       0.142000
     11 C16        130.4190   164.7110   111.0460 c6         1 QR3      -0.089400
     12 C17        130.3520   163.6380   112.1580 c6         1 QR3      -0.075400
     13 C18        129.0700   162.7880   112.0050 c6         1 QR3      -0.111400
     14 C19        128.9410   162.2360   110.5660 c6         1 QR3       0.155600
     15 C2         132.0420   161.8740   101.3140 ca         1 QR3      -0.126000
     16 C20        130.4100   165.1170   108.4610 cy         1 QR3       0.198800
     17 C3         133.3700   161.7880   101.7770 ca         1 QR3      -0.090000
     18 C4         133.9350   162.8970   102.4540 ca         1 QR3       0.233000
     19 C5         135.3360   162.8520   102.9490 cc         1 QR3       0.250000
     20 C6         137.2550   163.3360   103.9070 cd         1 QR3       0.206300
     21 C7         138.4360   163.8970   104.6490 c3         1 QR3      -0.137400
     22 C8         136.0200   163.8590   103.6960 cc         1 QR3      -0.205300
     23 C9         135.4880   165.1940   104.1780 c3         1 QR3       0.193300
     24 N1         131.9160   164.1070   102.1850 nb         1 QR3      -0.309000
     25 N2         136.1040   161.7910   102.7170 nd         1 QR3      -0.345300
     26 N3         134.5090   165.0860   105.2940 n          1 QR3      -0.153800
     27 N4         134.7100   163.9880   106.1520 nd         1 QR3      -0.396300
     28 N5         131.8340   164.6660   108.4230 nn         1 QR3      -0.670400
     29 O2         128.9880   163.3110   109.5970 os         1 QR3      -0.453000
     30 H          129.8730   163.7850   100.1210 hc         1 QR3       0.057367
     31 H1         129.4010   162.2890   100.9450 hc         1 QR3       0.057367
     32 H2         129.3210   163.8320   101.8060 hc         1 QR3       0.057367
     33 H10        133.9700   163.0680   107.7860 h4         1 QR3       0.040800
     34 H11        131.8140   166.6570   106.6180 ha         1 QR3       0.214000
     35 H12        131.2860   162.5480   108.3750 h1         1 QR3       0.067450
     36 H13        132.2150   163.0180   109.8390 h1         1 QR3       0.067450
     37 H14        131.3780   165.2450   111.1030 hc         1 QR3       0.060200
     38 H15        129.6400   165.4660   111.2190 hc         1 QR3       0.060200
     39 H16        131.2360   162.9880   112.1030 hc         1 QR3       0.046700
     40 H17        130.3760   164.1150   113.1480 hc         1 QR3       0.046700
     41 H18        128.1870   163.3980   112.2410 hc         1 QR3       0.055200
     42 H19        129.0790   161.9580   112.7250 hc         1 QR3       0.055200
     43 H21        127.9870   161.7010   110.4560 h1         1 QR3       0.048200
     44 H20        129.7530   161.5230   110.3590 h1         1 QR3       0.048200
     45 H3         131.5750   161.0430   100.7930 ha         1 QR3       0.132000
     46 H22        130.2430   166.1640   108.7400 h1         1 QR3       0.067450
     47 H23        129.8320   164.8700   107.5630 h1         1 QR3       0.067450
     48 H4         133.9400   160.8770   101.6130 ha         1 QR3       0.139000
     49 H7         139.2530   163.1680   104.7060 hc         1 QR3       0.065033
     50 H6         138.8200   164.7940   104.1490 hc         1 QR3       0.065033
     51 H5         138.1580   164.1710   105.6730 hc         1 QR3       0.065033
     52 H8         136.3250   165.8130   104.5240 h1         1 QR3       0.082700
     53 H9         135.0390   165.7220   103.3280 h1         1 QR3       0.082700
     54 O1         133.4250   167.0540   104.6420 o          1 QR3      -0.543000
@<TRIPOS>BOND
     1     1    18 ar  
     2     1    24 ar  
     3     2     4 1   
     4     2    30 1   
     5     2    31 1   
     6     2    32 1   
     7     3    20 1   
     8     3    25 1   
     9     4    15 ar  
    10     4    24 ar  
    11     5     6 1   
    12     5    27 2   
    13     5    33 1   
    14     6     7 2   
    15     6    28 1   
    16     7     8 1   
    17     7    34 1   
    18     8    26 1   
    19     8    54 2   
    20     9    10 1   
    21     9    28 1   
    22     9    35 1   
    23     9    36 1   
    24    10    11 1   
    25    10    16 1   
    26    10    29 1   
    27    11    12 1   
    28    11    37 1   
    29    11    38 1   
    30    12    13 1   
    31    12    39 1   
    32    12    40 1   
    33    13    14 1   
    34    13    41 1   
    35    13    42 1   
    36    14    29 1   
    37    14    43 1   
    38    14    44 1   
    39    15    17 ar  
    40    15    45 1   
    41    16    28 1   
    42    16    46 1   
    43    16    47 1   
    44    17    18 ar  
    45    17    48 1   
    46    18    19 1   
    47    19    22 1   
    48    19    25 2   
    49    20    21 1   
    50    20    22 2   
    51    21    49 1   
    52    21    50 1   
    53    21    51 1   
    54    22    23 1   
    55    23    26 1   
    56    23    52 1   
    57    23    53 1   
    58    26    27 1   
@<TRIPOS>SUBSTRUCTURE
     1 QR3         1 TEMP              0 ****  ****    0 ROOT
