@<TRIPOS>MOLECULE
QR3
   54    58     1     0     0
SMALL
abcg2


@<TRIPOS>ATOM
      1 N          133.0780   164.2080   102.8880 nb         1 QR3      -0.283000
      2 C          129.5990   164.0720   104.0010 c3         1 QR3      -0.145400
      3 O          136.9690   162.0770   102.8480 os         1 QR3      -0.090700
      4 C1         131.0450   163.7120   103.8720 ca         1 QR3       0.300300
      5 C10        134.2520   164.2410   107.0720 cc         1 QR3       0.306500
      6 C11        133.0300   164.9980   107.0990 cc         1 QR3       0.132400
      7 C12        132.9020   166.0170   106.1800 cd         1 QR3      -0.404200
      8 C13        133.9110   166.2600   105.2080 c          1 QR3       0.561200
      9 C14        131.8530   163.4070   108.6920 cy         1 QR3       0.198800
     10 C15        130.3520   163.8190   108.8310 cy         1 QR3       0.142000
     11 C16        129.8620   164.0580   110.2490 c6         1 QR3      -0.089400
     12 C17        129.6160   162.7340   110.9720 c6         1 QR3      -0.075400
     13 C18        128.6990   161.8460   110.1300 c6         1 QR3      -0.111400
     14 C19        129.2580   161.7070   108.7230 c6         1 QR3       0.155600
     15 C2         131.6050   162.6500   104.5940 ca         1 QR3      -0.126000
     16 C20        130.6790   165.0820   108.0070 cy         1 QR3       0.198800
     17 C3         132.9400   162.3830   104.4270 ca         1 QR3      -0.090000
     18 C4         133.6520   163.2070   103.5490 ca         1 QR3       0.233000
     19 C5         135.1040   163.0390   103.3330 cc         1 QR3       0.250000
     20 C6         137.2810   163.3210   103.2770 cd         1 QR3       0.206300
     21 C7         138.7170   163.6790   103.3160 c3         1 QR3      -0.137400
     22 C8         136.1380   163.9890   103.5930 cc         1 QR3      -0.205300
     23 C9         135.9860   165.3600   104.1650 c3         1 QR3       0.193300
     24 N1         131.7820   164.4530   103.0420 nb         1 QR3      -0.309000
     25 N2         135.5840   161.9010   102.9000 nd         1 QR3      -0.345300
     26 N3         134.9950   165.3640   105.2470 n          1 QR3      -0.153800
     27 N4         135.1700   164.4240   106.1800 nd         1 QR3      -0.396300
     28 N5         132.0880   164.6860   108.0050 nn         1 QR3      -0.670400
     29 O2         129.4620   162.9860   108.1060 os         1 QR3      -0.453000
     30 H          129.3140   164.7810   103.2270 hc         1 QR3       0.057367
     31 H1         128.9710   163.1820   103.9280 hc         1 QR3       0.057367
     32 H2         129.4070   164.5260   104.9760 hc         1 QR3       0.057367
     33 H10        134.4430   163.4650   107.8000 h4         1 QR3       0.040800
     34 H11        132.0220   166.6430   106.1430 ha         1 QR3       0.214000
     35 H12        132.0080   162.5380   108.0490 h1         1 QR3       0.067450
     36 H13        132.4120   163.2900   109.6210 h1         1 QR3       0.067450
     37 H14        130.5890   164.6730   110.7840 hc         1 QR3       0.060200
     38 H15        128.9290   164.6290   110.1910 hc         1 QR3       0.060200
     39 H16        130.5710   162.2220   111.1330 hc         1 QR3       0.046700
     40 H17        129.1830   162.9160   111.9580 hc         1 QR3       0.046700
     41 H18        127.7000   162.2880   110.0770 hc         1 QR3       0.055200
     42 H19        128.5970   160.8520   110.5740 hc         1 QR3       0.055200
     43 H21        128.5740   161.1710   108.0660 h1         1 QR3       0.048200
     44 H20        130.2100   161.1610   108.7450 h1         1 QR3       0.048200
     45 H3         130.9920   162.0670   105.2690 ha         1 QR3       0.132000
     46 H22        130.4840   166.0370   108.4970 h1         1 QR3       0.067450
     47 H23        130.2270   165.0750   107.0130 h1         1 QR3       0.067450
     48 H4         133.4390   161.5860   104.9590 ha         1 QR3       0.139000
     49 H7         139.2930   162.8930   103.8050 hc         1 QR3       0.065033
     50 H6         139.1100   163.8090   102.3050 hc         1 QR3       0.065033
     51 H5         138.8550   164.6120   103.8600 hc         1 QR3       0.065033
     52 H8         136.9440   165.7220   104.5430 h1         1 QR3       0.082700
     53 H9         135.6240   166.0720   103.4280 h1         1 QR3       0.082700
     54 O1         133.8780   167.1550   104.3510 o          1 QR3      -0.543000
@<TRIPOS>BOND
     1     1    18 ar  
     2     1    24 ar  
     3     2     4 1   
     4     2    30 1   
     5     2    31 1   
     6     2    32 1   
     7     3    20 1   
     8     3    25 1   
     9     4    15 ar  
    10     4    24 ar  
    11     5     6 1   
    12     5    27 2   
    13     5    33 1   
    14     6     7 2   
    15     6    28 1   
    16     7     8 1   
    17     7    34 1   
    18     8    26 1   
    19     8    54 2   
    20     9    10 1   
    21     9    28 1   
    22     9    35 1   
    23     9    36 1   
    24    10    11 1   
    25    10    16 1   
    26    10    29 1   
    27    11    12 1   
    28    11    37 1   
    29    11    38 1   
    30    12    13 1   
    31    12    39 1   
    32    12    40 1   
    33    13    14 1   
    34    13    41 1   
    35    13    42 1   
    36    14    29 1   
    37    14    43 1   
    38    14    44 1   
    39    15    17 ar  
    40    15    45 1   
    41    16    28 1   
    42    16    46 1   
    43    16    47 1   
    44    17    18 ar  
    45    17    48 1   
    46    18    19 1   
    47    19    22 1   
    48    19    25 2   
    49    20    21 1   
    50    20    22 2   
    51    21    49 1   
    52    21    50 1   
    53    21    51 1   
    54    22    23 1   
    55    23    26 1   
    56    23    52 1   
    57    23    53 1   
    58    26    27 1   
@<TRIPOS>SUBSTRUCTURE
     1 QR3         1 TEMP              0 ****  ****    0 ROOT
