@<TRIPOS>MOLECULE
QR5
   61    65     1     0     0
SMALL
abcg2


@<TRIPOS>ATOM
      1 N1         -22.9310    10.0360    28.0090 n          1 QR5      -0.407800
      2 N3         -20.1190     6.0690    26.6250 ns         1 QR5      -0.147000
      3 C4         -23.2930    10.5050    29.3400 c5         1 QR5       0.084000
      4 C5         -22.7750    11.9510    29.3330 c5         1 QR5       0.099000
      5 C6         -22.3050    13.5210    27.3950 cx         1 QR5       0.065700
      6 C7         -21.0450    13.7410    26.6070 cx         1 QR5      -0.130900
      7 C8         -21.1610    14.2910    28.0000 cx         1 QR5      -0.130900
      8 C10        -20.4460     5.4310    27.7820 c          1 QR5       0.613100
      9 C13        -16.2600     7.1860    25.6000 ca         1 QR5       0.349900
     10 C15        -16.9790     9.4910    25.0590 ca         1 QR5      -0.084000
     11 C17        -19.2980    10.0840    25.3440 ca         1 QR5      -0.087000
     12 C20        -22.3250     4.7450    29.3660 ca         1 QR5      -0.073300
     13 C21        -23.2550     5.4260    30.1460 ca         1 QR5      -0.083000
     14 C22        -23.5890     4.9780    31.4160 ca         1 QR5      -0.101000
     15 C24        -22.0750     3.1350    31.1550 ca         1 QR5       0.123000
     16 CL1        -21.3120     1.6860    31.7480 cl         1 QR5      -0.176000
     17 C23        -22.9980     3.8330    31.9320 ca         1 QR5       0.130000
     18 CL         -23.4330     3.2960    33.5280 cl         1 QR5      -0.178000
     19 C25        -21.7460     3.5870    29.8850 ca         1 QR5      -0.061000
     20 C1         -21.9830     5.1930    27.9450 c3         1 QR5       0.103700
     21 C          -22.3920     4.0900    26.9480 c3         1 QR5      -0.103100
     22 C11        -18.8200     6.4830    26.2690 ca         1 QR5      -0.075000
     23 C19        -18.6000     7.8230    25.8420 ca         1 QR5      -0.025000
     24 C18        -19.6060     8.8140    25.7630 ca         1 QR5      -0.100000
     25 C16        -17.9770    10.4280    24.9850 ca         1 QR5      -0.111000
     26 C14        -17.2670     8.1740    25.4890 ca         1 QR5      -0.089000
     27 N4         -16.4870     5.9570    26.0030 nb         1 QR5      -0.650000
     28 C12        -17.7580     5.6120    26.3270 ca         1 QR5       0.325900
     29 N          -22.7000     6.4050    27.5640 ns         1 QR5      -0.531900
     30 C2         -22.3960     7.6350    28.0390 c          1 QR5       0.563100
     31 O          -21.4530     7.8360    28.7920 o          1 QR5      -0.550100
     32 C3         -23.3140     8.7460    27.5320 c3         1 QR5       0.039000
     33 C9         -22.6860    11.0890    27.1560 c          1 QR5       0.616000
     34 O1         -22.5640    11.0040    25.9350 o          1 QR5      -0.592000
     35 N2         -22.6020    12.2240    27.9090 n          1 QR5      -0.407800
     36 H1         -20.8820     6.4370    26.0780 hn         1 QR5       0.154000
     37 H2         -24.3800    10.4630    29.4730 h1         1 QR5       0.057700
     38 H3         -22.8230     9.9000    30.1140 h1         1 QR5       0.057700
     39 H4         -21.8210    12.0390    29.8600 h1         1 QR5       0.056200
     40 H5         -23.4840    12.6460    29.7830 h1         1 QR5       0.056200
     41 H6         -23.1730    14.1030    27.1000 h1         1 QR5       0.085700
     42 H7         -21.0940    14.4230    25.7700 hc         1 QR5       0.080950
     43 H8         -20.4060    12.8820    26.4630 hc         1 QR5       0.080950
     44 H9         -20.5900    13.8020    28.7780 hc         1 QR5       0.080950
     45 H10        -21.2940    15.3550    28.1330 hc         1 QR5       0.080950
     46 H11        -15.2390     7.4460    25.3380 h4         1 QR5       0.020100
     47 H12        -15.9590     9.7410    24.7930 ha         1 QR5       0.116000
     48 H13        -20.0840    10.8260    25.2980 ha         1 QR5       0.133000
     49 H14        -23.7420     6.3130    29.7720 ha         1 QR5       0.113000
     50 H15        -24.3120     5.5170    32.0130 ha         1 QR5       0.131000
     51 H16        -21.0290     3.0230    29.3110 ha         1 QR5       0.143000
     52 H17        -21.8380     3.1750    27.1470 hc         1 QR5       0.055367
     53 H18        -23.4570     3.8830    27.0550 hc         1 QR5       0.055367
     54 H19        -22.1910     4.4050    25.9240 hc         1 QR5       0.055367
     55 H20        -20.6230     8.5860    26.0420 ha         1 QR5       0.113000
     56 H21        -17.7560    11.4360    24.6590 ha         1 QR5       0.115000
     57 H22        -17.9150     4.5910    26.6440 h4         1 QR5       0.033100
     58 H23        -23.5200     6.2980    26.9840 hn         1 QR5       0.319500
     59 H24        -24.3430     8.5030    27.8250 h1         1 QR5       0.070700
     60 H25        -23.2790     8.7550    26.4410 h1         1 QR5       0.070700
     61 O2         -19.6270     5.0190    28.5820 o          1 QR5      -0.551100
@<TRIPOS>BOND
     1     1     3 1   
     2     1    32 1   
     3     1    33 1   
     4     2     8 1   
     5     2    22 1   
     6     2    36 1   
     7     3     4 1   
     8     3    37 1   
     9     3    38 1   
    10     4    35 1   
    11     4    39 1   
    12     4    40 1   
    13     5     6 1   
    14     5     7 1   
    15     5    35 1   
    16     5    41 1   
    17     6     7 1   
    18     6    42 1   
    19     6    43 1   
    20     7    44 1   
    21     7    45 1   
    22     8    20 1   
    23     8    61 2   
    24     9    26 ar  
    25     9    27 ar  
    26     9    46 1   
    27    10    25 ar  
    28    10    26 ar  
    29    10    47 1   
    30    11    24 ar  
    31    11    25 ar  
    32    11    48 1   
    33    12    13 ar  
    34    12    19 ar  
    35    12    20 1   
    36    13    14 ar  
    37    13    49 1   
    38    14    17 ar  
    39    14    50 1   
    40    15    16 1   
    41    15    17 ar  
    42    15    19 ar  
    43    17    18 1   
    44    19    51 1   
    45    20    21 1   
    46    20    29 1   
    47    21    52 1   
    48    21    53 1   
    49    21    54 1   
    50    22    23 ar  
    51    22    28 ar  
    52    23    24 ar  
    53    23    26 ar  
    54    24    55 1   
    55    25    56 1   
    56    27    28 ar  
    57    28    57 1   
    58    29    30 1   
    59    29    58 1   
    60    30    31 2   
    61    30    32 1   
    62    32    59 1   
    63    32    60 1   
    64    33    34 2   
    65    33    35 1   
@<TRIPOS>SUBSTRUCTURE
     1 QR5         1 TEMP              0 ****  ****    0 ROOT
