@<TRIPOS>MOLECULE
QR5
   61    65     1     0     0
SMALL
No Charge or Current Charge


@<TRIPOS>ATOM
      1 N1         -23.1150    10.0960    28.0780 n          1 QR5      -0.407800
      2 N3         -20.0540     6.2850    26.9180 ns         1 QR5      -0.147000
      3 C4         -23.0890    10.6280    29.4590 c5         1 QR5       0.084000
      4 C5         -22.6130    12.1150    29.2580 c5         1 QR5       0.099000
      5 C6         -22.0750    13.4500    27.1120 cx         1 QR5       0.065700
      6 C7         -20.6830    13.6430    26.5630 cx         1 QR5      -0.130900
      7 C8         -21.1570    14.4820    27.7240 cx         1 QR5      -0.130900
      8 C10        -20.4540     5.2720    27.7870 c          1 QR5       0.613100
      9 C13        -16.2200     7.4790    25.6960 ca         1 QR5       0.349900
     10 C15        -17.0590     9.6520    24.9610 ca         1 QR5      -0.084000
     11 C17        -19.4220    10.1740    25.1890 ca         1 QR5      -0.087000
     12 C20        -22.3990     4.5480    29.3750 ca         1 QR5      -0.073300
     13 C21        -23.2940     5.2280    30.2410 ca         1 QR5      -0.083000
     14 C22        -23.6290     4.7000    31.5000 ca         1 QR5      -0.101000
     15 C24        -22.2200     2.7720    31.0720 ca         1 QR5       0.123000
     16 Cl1        -21.5340     1.2190    31.5570 cl         1 QR5      -0.176000
     17 C23        -23.0920     3.4760    31.9230 ca         1 QR5       0.130000
     18 Cl         -23.5350     2.8430    33.5090 cl         1 QR5      -0.178000
     19 C25        -21.8870     3.3000    29.8140 ca         1 QR5      -0.061000
     20 C1         -22.0220     5.0920    27.9630 c3         1 QR5       0.103700
     21 C          -22.4870     4.0570    26.9060 c3         1 QR5      -0.103100
     22 C11        -18.7590     6.7140    26.4990 ca         1 QR5      -0.075000
     23 C19        -18.5850     7.9990    25.9290 ca         1 QR5      -0.025000
     24 C18        -19.6540     8.9090    25.7570 ca         1 QR5      -0.100000
     25 C16        -18.1280    10.5460    24.7920 ca         1 QR5      -0.111000
     26 C14        -17.2860     8.3820    25.5260 ca         1 QR5      -0.089000
     27 N4         -16.3750     6.2460    26.2270 nb         1 QR5      -0.650000
     28 C12        -17.6180     5.8800    26.6170 ca         1 QR5       0.325900
     29 N          -22.7510     6.3500    27.6320 ns         1 QR5      -0.531900
     30 C2         -22.5130     7.6000    28.1790 c          1 QR5       0.563100
     31 O          -21.6110     7.7920    28.9810 o          1 QR5      -0.550100
     32 C3         -23.4800     8.7030    27.6970 c3         1 QR5       0.039000
     33 C9         -22.7830    11.0490    27.1340 c          1 QR5       0.616000
     34 O1         -22.7700    10.8850    25.9240 o          1 QR5      -0.592000
     35 N2         -22.4730    12.2230    27.7900 n          1 QR5      -0.407800
     36 H1         -20.8190     6.8040    26.5080 hn         1 QR5       0.154000
     37 H2         -24.0860    10.5850    29.9170 h1         1 QR5       0.057700
     38 H3         -22.3920    10.0690    30.0960 h1         1 QR5       0.057700
     39 H4         -21.6550    12.2950    29.7630 h1         1 QR5       0.056200
     40 H5         -23.3510    12.8310    29.6430 h1         1 QR5       0.056200
     41 H6         -22.9160    13.8030    26.5130 h1         1 QR5       0.085700
     42 H7         -20.5870    14.1220    25.5920 hc         1 QR5       0.080950
     43 H8         -19.9460    12.8700    26.7660 hc         1 QR5       0.080950
     44 H9         -20.7250    14.2780    28.7000 hc         1 QR5       0.080950
     45 H10        -21.3820    15.5290    27.5360 hc         1 QR5       0.080950
     46 H11        -15.2080     7.7470    25.3940 h4         1 QR5       0.020100
     47 H12        -16.0580     9.9460    24.6510 ha         1 QR5       0.116000
     48 H13        -20.2480    10.8680    25.0530 ha         1 QR5       0.133000
     49 H14        -23.7550     6.1680    29.9580 ha         1 QR5       0.113000
     50 H15        -24.3130     5.2400    32.1500 ha         1 QR5       0.131000
     51 H16        -21.2170     2.7240    29.1820 ha         1 QR5       0.143000
     52 H17        -21.9480     3.1080    27.0060 hc         1 QR5       0.055367
     53 H18        -23.5590     3.8510    27.0100 hc         1 QR5       0.055367
     54 H19        -22.3100     4.4300    25.8900 hc         1 QR5       0.055367
     55 H20        -20.6660     8.6530    26.0560 ha         1 QR5       0.113000
     56 H21        -17.9540    11.5270    24.3550 ha         1 QR5       0.115000
     57 H22        -17.6890     4.8690    27.0120 h4         1 QR5       0.033100
     58 H23        -23.5340     6.2840    26.9890 hn         1 QR5       0.319500
     59 H24        -24.4690     8.4720    28.1100 h1         1 QR5       0.070700
     60 H25        -23.5570     8.6190    26.6060 h1         1 QR5       0.070700
     61 O2         -19.6400     4.5910    28.4020 o          1 QR5      -0.551100
@<TRIPOS>BOND
     1     1     3 1   
     2     1    32 1   
     3     1    33 1   
     4     2     8 1   
     5     2    22 1   
     6     2    36 1   
     7     3     4 1   
     8     3    37 1   
     9     3    38 1   
    10     4    35 1   
    11     4    39 1   
    12     4    40 1   
    13     5     6 1   
    14     5     7 1   
    15     5    35 1   
    16     5    41 1   
    17     6     7 1   
    18     6    42 1   
    19     6    43 1   
    20     7    44 1   
    21     7    45 1   
    22     8    20 1   
    23     8    61 2   
    24     9    26 ar  
    25     9    27 ar  
    26     9    46 1   
    27    10    25 ar  
    28    10    26 ar  
    29    10    47 1   
    30    11    24 ar  
    31    11    25 ar  
    32    11    48 1   
    33    12    13 ar  
    34    12    19 ar  
    35    12    20 1   
    36    13    14 ar  
    37    13    49 1   
    38    14    17 ar  
    39    14    50 1   
    40    15    16 1   
    41    15    17 ar  
    42    15    19 ar  
    43    17    18 1   
    44    19    51 1   
    45    20    21 1   
    46    20    29 1   
    47    21    52 1   
    48    21    53 1   
    49    21    54 1   
    50    22    23 ar  
    51    22    28 ar  
    52    23    24 ar  
    53    23    26 ar  
    54    24    55 1   
    55    25    56 1   
    56    27    28 ar  
    57    28    57 1   
    58    29    30 1   
    59    29    58 1   
    60    30    31 2   
    61    30    32 1   
    62    32    59 1   
    63    32    60 1   
    64    33    34 2   
    65    33    35 1   
@<TRIPOS>SUBSTRUCTURE
     1 QR5         1 TEMP              0 ****  ****    0 ROOT
