@<TRIPOS>MOLECULE
QR6
   49    52     1     0     0
SMALL
abcg2


@<TRIPOS>ATOM
      1 C18        -50.4070   -29.7580     5.6260 ca         1 QR6      -0.150000
      2 C16        -49.7450   -29.7710     4.4080 ca         1 QR6       0.190000
      3 C15        -48.4320   -29.3310     4.2600 ca         1 QR6      -0.143600
      4 C14        -47.7300   -29.2550     2.9370 c          1 QR6       0.608700
      5 C12        -45.6330   -29.8290     1.7800 c5         1 QR6       0.166000
      6 C11        -45.6420   -31.0830     0.9300 ca         1 QR6      -0.042300
      7 C10        -46.7090   -31.9090     0.6100 ca         1 QR6      -0.115000
      8 C19        -49.7470   -29.2740     6.7610 ca         1 QR6       0.001000
      9 C02        -43.6930   -30.3470     3.4740 c          1 QR6       0.716000
     10 C03        -44.1390   -29.6550     2.1610 c5         1 QR6      -0.205700
     11 C04        -43.3850   -30.2920     0.9600 c5         1 QR6      -0.003100
     12 C05        -44.3600   -31.3200     0.4470 ca         1 QR6      -0.088300
     13 C06        -44.1300   -32.4050    -0.3920 ca         1 QR6       0.126100
     14 C08        -45.1910   -33.2510    -0.7200 ca         1 QR6      -0.211000
     15 C09        -46.4670   -33.0020    -0.2190 ca         1 QR6      -0.093000
     16 C21        -51.6500   -29.4190     8.3770 c          1 QR6       0.660100
     17 C23        -53.2440   -29.2450    10.2130 cx         1 QR6       0.063700
     18 C24        -53.3870   -29.5900    11.6640 cx         1 QR6      -0.134900
     19 C25        -53.7900   -30.5880    10.6100 cx         1 QR6      -0.134900
     20 C27        -48.4170   -28.8490     6.6400 ca         1 QR6      -0.180000
     21 C28        -47.7800   -28.8870     5.4150 ca         1 QR6      -0.038000
     22 N13        -46.5310   -29.8530     2.9120 ns         1 QR6      -0.472900
     23 N20        -50.3310   -29.1970     8.0230 ns         1 QR6      -0.162000
     24 N22        -51.9140   -29.1590     9.6880 ns         1 QR6      -0.504900
     25 O01        -44.4620   -31.1930     4.0100 o          1 QR6      -0.728000
     26 O07        -42.8590   -32.6020    -0.8560 oh         1 QR6      -0.540100
     27 O26        -52.5040   -29.8260     7.5930 o          1 QR6      -0.615100
     28 O29        -48.2190   -28.6480     1.9800 o          1 QR6      -0.638100
     29 O30        -42.5610   -30.0160     3.8990 o          1 QR6      -0.728000
     30 CL17       -50.6160   -30.4400     3.0410 cl         1 QR6      -0.202000
     31 H181       -51.4160   -30.1220     5.7010 ha         1 QR6       0.159000
     32 H121       -45.9380   -28.9860     1.1560 h1         1 QR6       0.059700
     33 H101       -47.7000   -31.7170     1.0040 ha         1 QR6       0.121000
     34 H031       -43.8890   -28.5990     2.2570 hc         1 QR6       0.051700
     35 H042       -43.1800   -29.5400     0.1910 hc         1 QR6       0.051200
     36 H041       -42.4260   -30.7160     1.2540 hc         1 QR6       0.051200
     37 H081       -45.0120   -34.1050    -1.3640 ha         1 QR6       0.092000
     38 H091       -47.2760   -33.6740    -0.4810 ha         1 QR6       0.095000
     39 H231       -53.9490   -28.5320     9.7990 h1         1 QR6       0.084700
     40 H241       -52.4770   -29.7850    12.2160 hc         1 QR6       0.077200
     41 H242       -54.1620   -29.0850    12.2230 hc         1 QR6       0.077200
     42 H252       -53.1440   -31.4420    10.4570 hc         1 QR6       0.077200
     43 H251       -54.8430   -30.7700    10.4440 hc         1 QR6       0.077200
     44 H271       -47.8910   -28.4800     7.5120 ha         1 QR6       0.109000
     45 H281       -46.7570   -28.5440     5.3390 ha         1 QR6       0.142000
     46 H131       -46.1900   -30.4070     3.6930 hn         1 QR6       0.377500
     47 H201       -49.7160   -28.8660     8.7510 hn         1 QR6       0.142000
     48 H221       -51.2300   -28.6660    10.2420 hn         1 QR6       0.310500
     49 H071       -42.8300   -33.3950    -1.4070 ho         1 QR6       0.443000
@<TRIPOS>BOND
     1     1     2 ar  
     2     1     8 ar  
     3     1    31 1   
     4     2     3 ar  
     5     2    30 1   
     6     3     4 1   
     7     3    21 ar  
     8     4    22 1   
     9     4    28 2   
    10     5     6 1   
    11     5    10 1   
    12     5    22 1   
    13     5    32 1   
    14     6     7 ar  
    15     6    12 ar  
    16     7    15 ar  
    17     7    33 1   
    18     8    20 ar  
    19     8    23 1   
    20     9    10 1   
    21     9    25 1   
    22     9    29 1   
    23    10    11 1   
    24    10    34 1   
    25    11    12 1   
    26    11    35 1   
    27    11    36 1   
    28    12    13 ar  
    29    13    14 ar  
    30    13    26 1   
    31    14    15 ar  
    32    14    37 1   
    33    15    38 1   
    34    16    23 1   
    35    16    24 1   
    36    16    27 2   
    37    17    18 1   
    38    17    19 1   
    39    17    24 1   
    40    17    39 1   
    41    18    19 1   
    42    18    40 1   
    43    18    41 1   
    44    19    42 1   
    45    19    43 1   
    46    20    21 ar  
    47    20    44 1   
    48    21    45 1   
    49    22    46 1   
    50    23    47 1   
    51    24    48 1   
    52    26    49 1   
@<TRIPOS>SUBSTRUCTURE
     1 QR6         1 TEMP              0 ****  ****    0 ROOT
