@<TRIPOS>MOLECULE
QR6
   49    52     1     0     0
SMALL
No Charge or Current Charge


@<TRIPOS>ATOM
      1 C18        -50.4270   -28.6990     5.5840 ca         1 QR6      -0.150000
      2 C16        -49.7850   -28.5840     4.3390 ca         1 QR6       0.190000
      3 C15        -48.5050   -29.1550     4.1330 ca         1 QR6      -0.143600
      4 C14        -47.7800   -29.0420     2.8120 c          1 QR6       0.608700
      5 C12        -46.1050   -30.0350     1.3150 c5         1 QR6       0.166000
      6 C11        -45.6190   -31.3590     0.7850 ca         1 QR6      -0.042300
      7 C10        -46.4040   -32.4960     0.5250 ca         1 QR6      -0.115000
      8 C19        -49.8130   -29.3780     6.6560 ca         1 QR6       0.001000
      9 C02        -44.3880   -29.5370     3.2490 c          1 QR6       0.716000
     10 C03        -44.7340   -29.3500     1.7440 c5         1 QR6      -0.205700
     11 C04        -43.6110   -30.0410     0.8670 c5         1 QR6      -0.003100
     12 C05        -44.2610   -31.3620     0.5290 ca         1 QR6      -0.088300
     13 C06        -43.6310   -32.5050     0.0050 ca         1 QR6       0.126100
     14 C08        -44.4010   -33.6530    -0.2550 ca         1 QR6      -0.211000
     15 C09        -45.7870   -33.6490     0.0050 ca         1 QR6      -0.093000
     16 C21        -51.6070   -29.0850     8.4680 c          1 QR6       0.660100
     17 C23        -52.9320   -29.1550    10.5720 cx         1 QR6       0.063700
     18 C24        -53.1040   -29.8860    11.8810 cx         1 QR6      -0.134900
     19 C25        -54.0010   -30.2110    10.7110 cx         1 QR6      -0.134900
     20 C27        -48.5450   -29.9430     6.4530 ca         1 QR6      -0.180000
     21 C28        -47.8960   -29.8370     5.2130 ca         1 QR6      -0.038000
     22 N13        -46.9570   -30.1080     2.5050 ns         1 QR6      -0.472900
     23 N20        -50.4050   -29.5300     7.9390 ns         1 QR6      -0.162000
     24 N22        -51.7790   -29.4750     9.7770 ns         1 QR6      -0.504900
     25 O01        -44.2650   -30.6600     3.7190 o          1 QR6      -0.728000
     26 O07        -42.2920   -32.5090    -0.2550 oh         1 QR6      -0.540100
     27 O26        -52.4410   -28.4200     7.8700 o          1 QR6      -0.615100
     28 O29        -47.8620   -28.0560     2.0890 o          1 QR6      -0.638100
     29 O30        -44.2250   -28.5380     3.9320 o          1 QR6      -0.728000
     30 Cl17       -50.6840   -27.7670     3.0560 cl         1 QR6      -0.202000
     31 H181       -51.4110   -28.2570     5.6900 ha         1 QR6       0.159000
     32 H121       -46.5780   -29.4850     0.4890 h1         1 QR6       0.059700
     33 H101       -47.4740   -32.4840     0.7190 ha         1 QR6       0.121000
     34 H031       -44.7730   -28.2730     1.5470 hc         1 QR6       0.051700
     35 H042       -43.4040   -29.4650    -0.0420 hc         1 QR6       0.051200
     36 H041       -42.6620   -30.1520     1.4040 hc         1 QR6       0.051200
     37 H081       -43.9350   -34.5480    -0.6600 ha         1 QR6       0.092000
     38 H091       -46.3820   -34.5370    -0.2000 ha         1 QR6       0.095000
     39 H231       -53.2420   -28.1100    10.5240 h1         1 QR6       0.084700
     40 H241       -52.3530   -30.6200    12.1630 hc         1 QR6       0.077200
     41 H242       -53.5350   -29.3340    12.7130 hc         1 QR6       0.077200
     42 H252       -53.8500   -31.1600    10.2020 hc         1 QR6       0.077200
     43 H251       -55.0350   -29.8770    10.7550 hc         1 QR6       0.077200
     44 H271       -48.0490   -30.4670     7.2680 ha         1 QR6       0.109000
     45 H281       -46.9010   -30.2660     5.1140 ha         1 QR6       0.142000
     46 H131       -46.9450   -30.8890     3.1460 hn         1 QR6       0.377500
     47 H201       -49.8400   -30.0640     8.5840 hn         1 QR6       0.142000
     48 H221       -51.0310   -30.0190    10.1900 hn         1 QR6       0.310500
     49 H071       -42.0540   -33.3910    -0.6110 ho         1 QR6       0.443000
@<TRIPOS>BOND
     1     1     2 ar  
     2     1     8 ar  
     3     1    31 1   
     4     2     3 ar  
     5     2    30 1   
     6     3     4 1   
     7     3    21 ar  
     8     4    22 1   
     9     4    28 2   
    10     5     6 1   
    11     5    10 1   
    12     5    22 1   
    13     5    32 1   
    14     6     7 ar  
    15     6    12 ar  
    16     7    15 ar  
    17     7    33 1   
    18     8    20 ar  
    19     8    23 1   
    20     9    10 1   
    21     9    25 1   
    22     9    29 1   
    23    10    11 1   
    24    10    34 1   
    25    11    12 1   
    26    11    35 1   
    27    11    36 1   
    28    12    13 ar  
    29    13    14 ar  
    30    13    26 1   
    31    14    15 ar  
    32    14    37 1   
    33    15    38 1   
    34    16    23 1   
    35    16    24 1   
    36    16    27 2   
    37    17    18 1   
    38    17    19 1   
    39    17    24 1   
    40    17    39 1   
    41    18    19 1   
    42    18    40 1   
    43    18    41 1   
    44    19    42 1   
    45    19    43 1   
    46    20    21 ar  
    47    20    44 1   
    48    21    45 1   
    49    22    46 1   
    50    23    47 1   
    51    24    48 1   
    52    26    49 1   
@<TRIPOS>SUBSTRUCTURE
     1 QR6         1 TEMP              0 ****  ****    0 ROOT
