@<TRIPOS>MOLECULE
QR7
   62    66     1     0     0
SMALL
No Charge or Current Charge


@<TRIPOS>ATOM
      1 C1           5.1770    33.9040    25.5660 cc         1 QR7       0.298300
      2 C2           6.2020    33.0700    25.0560 cc         1 QR7      -0.208300
      3 C3           6.3400    33.3920    23.7390 cd         1 QR7      -0.091000
      4 N6          11.6420    31.4530    23.1880 ns         1 QR7      -0.502900
      5 C7           6.4830    35.8940    20.4370 ca         1 QR7       0.404900
      6 C8           9.0160    35.8220    20.0470 ca         1 QR7       0.282000
      7 C9          10.0270    36.6940    19.5780 ca         1 QR7      -0.136000
      8 C10         11.3860    36.4500    19.8700 ca         1 QR7      -0.097000
      9 C11         11.7090    35.3180    20.6350 ca         1 QR7      -0.081200
     10 C12         10.7400    34.4570    21.0710 ca         1 QR7      -0.029800
     11 C13          9.3850    34.6710    20.7830 ca         1 QR7      -0.065000
     12 C14         11.3920    33.4160    21.8290 cc         1 QR7      -0.216400
     13 C15         12.7580    33.7140    21.8130 cd         1 QR7      -0.114100
     14 C19         11.7770    30.2950    25.4230 c3         1 QR7       0.142600
     15 C20          9.6820    30.5790    26.6480 c3         1 QR7       0.115600
     16 C21          8.8480    31.6370    27.4350 c3         1 QR7       0.176800
     17 C22          6.9910    32.0560    25.8380 c3         1 QR7       0.252100
     18 C17         10.7530    32.2540    22.5040 c          1 QR7       0.648300
     19 C18         11.2960    30.2400    23.9490 c3         1 QR7       0.071000
     20 O1          10.9260    31.1670    26.1990 os         1 QR7      -0.454000
     21 N7           8.1010    32.6480    26.6260 n3         1 QR7      -0.731600
     22 C23          8.9940    33.5360    25.8400 c3         1 QR7       0.161100
     23 N5          12.9570    34.8940    21.0630 na         1 QR7      -0.082700
     24 N4           7.6750    36.1330    19.7660 nu         1 QR7      -0.927900
     25 N2           5.3640    36.2960    19.8170 nb         1 QR7      -0.254000
     26 C6           4.2100    36.0650    20.4700 ca         1 QR7       0.154900
     27 C5           4.1890    35.4350    21.7260 ca         1 QR7      -0.263000
     28 N3           6.5590    35.3040    21.6370 nb         1 QR7      -0.277000
     29 C4           5.4160    35.0470    22.3060 ca         1 QR7       0.285500
     30 N            5.3950    34.3990    23.5510 na         1 QR7       0.080300
     31 N1           4.6660    34.7400    24.6780 nd         1 QR7      -0.521800
     32 C            4.7240    33.8610    26.9990 c3         1 QR7      -0.122400
     33 H1           7.0100    33.0190    22.9710 h4         1 QR7       0.193000
     34 H2          12.6090    31.7440    23.1690 hn         1 QR7       0.301500
     35 H3           9.7570    37.5760    19.0030 ha         1 QR7       0.113000
     36 H4          12.1570    37.1330    19.5200 ha         1 QR7       0.116000
     37 H5           8.6390    33.9630    21.1200 ha         1 QR7       0.164000
     38 H6          13.5970    33.1890    22.2610 h4         1 QR7       0.208000
     39 H7          15.0570    35.0480    21.2190 h1         1 QR7       0.052700
     40 H8          14.3630    35.6460    19.6830 h1         1 QR7       0.052700
     41 H9          14.1800    36.6070    21.1830 h1         1 QR7       0.052700
     42 H10         11.7750    29.2810    25.8450 h1         1 QR7       0.045200
     43 H11         12.8130    30.6560    25.4450 h1         1 QR7       0.045200
     44 H12          9.0970    30.1840    25.8090 h1         1 QR7       0.026200
     45 H13          9.8960    29.7410    27.3230 h1         1 QR7       0.026200
     46 H14          9.5230    32.1470    28.1340 h1         1 QR7       0.056700
     47 H15          8.1310    31.0860    28.0580 h1         1 QR7       0.056700
     48 H16          6.3050    31.5150    26.5040 h1         1 QR7       0.039200
     49 H17          7.3840    31.3220    25.1220 h1         1 QR7       0.039200
     50 H18         10.2150    30.0600    23.9100 h1         1 QR7       0.058200
     51 H19         11.7860    29.3890    23.4580 h1         1 QR7       0.058200
     52 H21          9.8060    33.9260    26.4680 h1         1 QR7       0.036700
     53 H22          9.4410    32.9990    24.9950 h1         1 QR7       0.036700
     54 H23          8.4440    34.3990    25.4420 h1         1 QR7       0.036700
     55 H24          7.5520    36.7670    18.9770 hn         1 QR7       0.508000
     56 H25          3.2910    36.3840    19.9790 h4         1 QR7       0.025100
     57 H26          3.2480    35.2490    22.2350 ha         1 QR7       0.160000
     58 H27          3.9670    34.6280    27.2010 hc         1 QR7       0.051033
     59 H28          4.2870    32.8850    27.2380 hc         1 QR7       0.051033
     60 H29          5.5670    34.0340    27.6770 hc         1 QR7       0.051033
     61 C16         14.2170    35.5920    20.7690 c3         1 QR7       0.063900
     62 O            9.5560    32.0090    22.4630 o          1 QR7      -0.623100
@<TRIPOS>BOND
     1     1     2 1   
     2     1    31 2   
     3     1    32 1   
     4     2     3 2   
     5     2    17 1   
     6     3    30 1   
     7     3    33 1   
     8     4    18 1   
     9     4    19 1   
    10     4    34 1   
    11     5    24 1   
    12     5    25 ar  
    13     5    28 ar  
    14     6     7 ar  
    15     6    11 ar  
    16     6    24 1   
    17     7     8 ar  
    18     7    35 1   
    19     8     9 ar  
    20     8    36 1   
    21     9    10 ar  
    22     9    23 1   
    23    10    11 ar  
    24    10    12 1   
    25    11    37 1   
    26    12    13 2   
    27    12    18 1   
    28    13    23 1   
    29    13    38 1   
    30    14    19 1   
    31    14    20 1   
    32    14    42 1   
    33    14    43 1   
    34    15    16 1   
    35    15    20 1   
    36    15    44 1   
    37    15    45 1   
    38    16    21 1   
    39    16    46 1   
    40    16    47 1   
    41    17    21 1   
    42    17    48 1   
    43    17    49 1   
    44    18    62 2   
    45    19    50 1   
    46    19    51 1   
    47    21    22 1   
    48    22    52 1   
    49    22    53 1   
    50    22    54 1   
    51    23    61 1   
    52    24    55 1   
    53    25    26 ar  
    54    26    27 ar  
    55    26    56 1   
    56    27    29 ar  
    57    27    57 1   
    58    28    29 ar  
    59    29    30 1   
    60    30    31 1   
    61    32    58 1   
    62    32    59 1   
    63    32    60 1   
    64    39    61 1   
    65    40    61 1   
    66    41    61 1   
@<TRIPOS>SUBSTRUCTURE
     1 QR7         1 TEMP              0 ****  ****    0 ROOT
