@<TRIPOS>MOLECULE
QR7
   62    66     1     0     0
SMALL
abcg2


@<TRIPOS>ATOM
      1 C1           5.1560    33.4490    25.3280 cc         1 QR7       0.298300
      2 C2           6.4220    32.9230    24.9270 cc         1 QR7      -0.208300
      3 C3           6.6800    33.5070    23.7180 cd         1 QR7      -0.091000
      4 N6          11.5430    31.7170    23.4700 ns         1 QR7      -0.502900
      5 C7           6.5390    36.0400    20.5020 ca         1 QR7       0.404900
      6 C8           8.9850    35.8150    20.0020 ca         1 QR7       0.282000
      7 C9           9.9990    36.5950    19.4010 ca         1 QR7      -0.136000
      8 C10         11.3390    36.3160    19.5960 ca         1 QR7      -0.097000
      9 C11         11.6630    35.2390    20.4190 ca         1 QR7      -0.081200
     10 C12         10.6660    34.4320    21.0180 ca         1 QR7      -0.029800
     11 C13          9.3160    34.7180    20.7910 ca         1 QR7      -0.065000
     12 C14         11.3590    33.4380    21.8020 cc         1 QR7      -0.216400
     13 C15         12.7110    33.6850    21.6290 cd         1 QR7      -0.114100
     14 C19         11.6560    30.4570    25.5930 c3         1 QR7       0.142600
     15 C20          9.7080    30.6540    26.9410 c3         1 QR7       0.115600
     16 C21          8.7710    31.6740    27.5780 c3         1 QR7       0.176800
     17 C22          7.3160    31.9750    25.6550 c3         1 QR7       0.252100
     18 C17         10.7400    32.3580    22.5810 c          1 QR7       0.648300
     19 C18         11.1940    30.4760    24.1410 c3         1 QR7       0.071000
     20 O1          10.8820    31.2920    26.4430 os         1 QR7      -0.454000
     21 N7           8.1070    32.6340    26.7000 n3         1 QR7      -0.731600
     22 C23          8.9870    33.6750    26.1760 c3         1 QR7       0.161100
     23 N5          12.8980    34.7550    20.8090 na         1 QR7      -0.082700
     24 N4           7.6570    36.2080    19.7400 nu         1 QR7      -0.927900
     25 N2           5.4470    36.7170    20.0890 nb         1 QR7      -0.254000
     26 C6           4.3620    36.5830    20.8480 ca         1 QR7       0.154900
     27 C5           4.3120    35.8090    22.0000 ca         1 QR7      -0.263000
     28 N3           6.5940    35.2550    21.5790 nb         1 QR7      -0.277000
     29 C4           5.4960    35.1490    22.3160 ca         1 QR7       0.285500
     30 N            5.6210    34.3220    23.4330 na         1 QR7       0.080300
     31 N1           4.6760    34.2840    24.4180 nd         1 QR7      -0.521800
     32 C            4.4100    33.1470    26.5810 c3         1 QR7      -0.122400
     33 H1           7.5210    33.4030    23.0580 h4         1 QR7       0.193000
     34 H2          12.5060    32.0060    23.5340 hn         1 QR7       0.301500
     35 H3           9.7140    37.4360    18.7810 ha         1 QR7       0.113000
     36 H4          12.1030    36.9260    19.1320 ha         1 QR7       0.116000
     37 H5           8.5520    34.1040    21.2270 ha         1 QR7       0.164000
     38 H6          13.5690    33.1610    22.0200 h4         1 QR7       0.208000
     39 H7          14.9720    34.7190    20.8560 h1         1 QR7       0.052700
     40 H8          14.2790    35.2230    19.3010 h1         1 QR7       0.052700
     41 H9          14.2660    36.3380    20.6830 h1         1 QR7       0.052700
     42 H10         11.6390    29.4240    25.9580 h1         1 QR7       0.045200
     43 H11         12.6870    30.8150    25.6570 h1         1 QR7       0.045200
     44 H12          9.1980    30.1180    26.1340 h1         1 QR7       0.026200
     45 H13          9.9900    29.9110    27.6980 h1         1 QR7       0.026200
     46 H14          9.3230    32.2350    28.3360 h1         1 QR7       0.056700
     47 H15          7.9950    31.1020    28.0990 h1         1 QR7       0.056700
     48 H16          6.7180    31.1980    26.1390 h1         1 QR7       0.039200
     49 H17          7.9570    31.4770    24.9140 h1         1 QR7       0.039200
     50 H18         10.1150    30.3540    24.0770 h1         1 QR7       0.058200
     51 H19         11.6550    29.6280    23.6220 h1         1 QR7       0.058200
     52 H21          9.5870    34.0760    26.9940 h1         1 QR7       0.036700
     53 H22          9.6700    33.3170    25.3960 h1         1 QR7       0.036700
     54 H23          8.3890    34.4870    25.7610 h1         1 QR7       0.036700
     55 H24          7.5370    36.8880    19.0040 hn         1 QR7       0.508000
     56 H25          3.4790    37.1220    20.5220 h4         1 QR7       0.025100
     57 H26          3.4190    35.7160    22.5960 ha         1 QR7       0.160000
     58 H27          3.4510    33.6620    26.5910 hc         1 QR7       0.051033
     59 H28          4.2340    32.0720    26.6760 hc         1 QR7       0.051033
     60 H29          4.9870    33.4560    27.4550 hc         1 QR7       0.051033
     61 C16         14.1780    35.2920    20.3850 c3         1 QR7       0.063900
     62 O            9.5480    32.0540    22.4350 o          1 QR7      -0.623100
@<TRIPOS>BOND
     1     1     2 1   
     2     1    31 2   
     3     1    32 1   
     4     2     3 2   
     5     2    17 1   
     6     3    30 1   
     7     3    33 1   
     8     4    18 1   
     9     4    19 1   
    10     4    34 1   
    11     5    24 1   
    12     5    25 ar  
    13     5    28 ar  
    14     6     7 ar  
    15     6    11 ar  
    16     6    24 1   
    17     7     8 ar  
    18     7    35 1   
    19     8     9 ar  
    20     8    36 1   
    21     9    10 ar  
    22     9    23 1   
    23    10    11 ar  
    24    10    12 1   
    25    11    37 1   
    26    12    13 2   
    27    12    18 1   
    28    13    23 1   
    29    13    38 1   
    30    14    19 1   
    31    14    20 1   
    32    14    42 1   
    33    14    43 1   
    34    15    16 1   
    35    15    20 1   
    36    15    44 1   
    37    15    45 1   
    38    16    21 1   
    39    16    46 1   
    40    16    47 1   
    41    17    21 1   
    42    17    48 1   
    43    17    49 1   
    44    18    62 2   
    45    19    50 1   
    46    19    51 1   
    47    21    22 1   
    48    22    52 1   
    49    22    53 1   
    50    22    54 1   
    51    23    61 1   
    52    24    55 1   
    53    25    26 ar  
    54    26    27 ar  
    55    26    56 1   
    56    27    29 ar  
    57    27    57 1   
    58    28    29 ar  
    59    29    30 1   
    60    30    31 1   
    61    32    58 1   
    62    32    59 1   
    63    32    60 1   
    64    39    61 1   
    65    40    61 1   
    66    41    61 1   
@<TRIPOS>SUBSTRUCTURE
     1 QR7         1 TEMP              0 ****  ****    0 ROOT
