@<TRIPOS>MOLECULE
QR8
   62    62     1     0     0
SMALL
No Charge or Current Charge


@<TRIPOS>ATOM
      1 O11         -6.3240     2.4240     7.2710 o          1 QR8      -0.537100
      2 C9          -5.3690     3.1580     7.0450 c          1 QR8       0.574100
      3 C10         -5.3750     4.6430     7.4740 c3         1 QR8      -0.195700
      4 C34         -4.5730     4.7650     8.8100 c3         1 QR8      -0.082100
      5 C11         -6.8250     5.2480     7.5070 c3         1 QR8       0.200300
      6 O12         -7.4410     4.9300     8.7590 oh         1 QR8      -0.668000
      7 C12         -6.9980     6.7880     7.2170 c3         1 QR8      -0.057700
      8 C35         -5.8390     7.6930     7.7210 c3         1 QR8      -0.080100
      9 C13         -7.4400     7.0660     5.7450 c3         1 QR8       0.178300
     10 C36         -7.6400     8.5650     5.4040 c3         1 QR8      -0.116100
     11 O2          -6.4700     6.5060     4.8390 os         1 QR8      -0.449100
     12 C8          -4.0450     2.6070     6.4480 c3         1 QR8      -0.155700
     13 C33         -3.5070     1.3810     7.2320 c3         1 QR8      -0.080100
     14 C7          -4.0680     2.4430     4.8990 c3         1 QR8      -0.058400
     15 C6          -5.2100     1.6150     4.2200 c3         1 QR8      -0.090700
     16 C32         -5.2840     0.1430     4.7070 c3         1 QR8      -0.095100
     17 C5          -5.1550     1.6850     2.6470 c3         1 QR8       0.173300
     18 O7          -4.0340     0.9070     2.1990 oh         1 QR8      -0.665000
     19 C4          -5.0730     3.1140     1.9950 c3         1 QR8      -0.042700
     20 C31         -4.9890     3.0240     0.4400 c3         1 QR8      -0.073100
     21 C3          -6.2020     4.0850     2.4960 c3         1 QR8       0.184300
     22 O3          -7.3450     4.0380     1.6310 oh         1 QR8      -0.656000
     23 C2          -5.7620     5.5570     2.7320 c3         1 QR8      -0.156700
     24 C30         -5.3770     6.3720     1.4700 c3         1 QR8      -0.077100
     25 C1          -6.8580     6.2530     3.5450 c          1 QR8       0.588100
     26 O1          -7.9710     6.4830     3.0900 o          1 QR8      -0.505000
     27 H1          -4.7690     5.1740     6.7310 hc         1 QR8       0.081700
     28 H2          -3.5450     4.4040     8.6840 hc         1 QR8       0.043033
     29 H3          -4.5020     5.7950     9.1660 hc         1 QR8       0.043033
     30 H4          -5.0320     4.1650     9.6050 hc         1 QR8       0.043033
     31 H5          -7.3950     4.7380     6.7180 h1         1 QR8       0.034700
     32 H6          -7.4590     3.9490     8.8150 ho         1 QR8       0.461000
     33 H7          -7.8680     7.1040     7.8060 hc         1 QR8       0.076700
     34 H8          -5.6960     7.5680     8.8000 hc         1 QR8       0.039033
     35 H9          -4.8980     7.4740     7.2040 hc         1 QR8       0.039033
     36 H10         -6.0650     8.7550     7.5710 hc         1 QR8       0.039033
     37 H11         -8.4080     6.5600     5.6150 h1         1 QR8       0.062700
     38 H12         -8.2310     9.0610     6.1840 hc         1 QR8       0.051700
     39 H13         -6.6780     9.0830     5.3160 hc         1 QR8       0.051700
     40 H14         -8.1790     8.6890     4.4590 hc         1 QR8       0.051700
     41 H15         -3.2950     3.3950     6.5880 hc         1 QR8       0.054700
     42 H16         -3.2680     1.6700     8.2630 hc         1 QR8       0.042367
     43 H17         -4.2350     0.5670     7.2840 hc         1 QR8       0.042367
     44 H18         -2.5890     0.9960     6.7730 hc         1 QR8       0.042367
     45 H19         -3.0980     2.0430     4.5760 hc         1 QR8       0.046700
     46 H20         -4.1060     3.4640     4.5060 hc         1 QR8       0.046700
     47 H21         -6.1640     2.0490     4.5330 hc         1 QR8       0.056700
     48 H22         -5.7080     0.0880     5.7150 hc         1 QR8       0.038700
     49 H23         -5.9410    -0.4500     4.0590 hc         1 QR8       0.038700
     50 H24         -4.2930    -0.3280     4.7190 hc         1 QR8       0.038700
     51 H25         -6.0800     1.2210     2.2750 h1         1 QR8       0.042700
     52 H26         -4.1040     0.0330     2.6370 ho         1 QR8       0.445000
     53 H27         -4.1150     3.5470     2.3050 hc         1 QR8       0.055700
     54 H28         -4.0570     2.5400     0.1240 hc         1 QR8       0.040700
     55 H29         -5.8240     2.4390     0.0360 hc         1 QR8       0.040700
     56 H30         -5.0150     4.0130    -0.0280 hc         1 QR8       0.040700
     57 H31         -6.5250     3.7500     3.4850 h1         1 QR8       0.026700
     58 H32         -7.9250     4.7910     1.8900 ho         1 QR8       0.465000
     59 H33         -4.8750     5.5280     3.3760 hc         1 QR8       0.075700
     60 H34         -5.1690     7.4150     1.7400 hc         1 QR8       0.048700
     61 H35         -4.4700     5.9690     1.0040 hc         1 QR8       0.048700
     62 H36         -6.1840     6.3700     0.7270 hc         1 QR8       0.048700
@<TRIPOS>BOND
     1     1     2 2   
     2     2     3 1   
     3     2    12 1   
     4     3     4 1   
     5     3     5 1   
     6     3    27 1   
     7     4    28 1   
     8     4    29 1   
     9     4    30 1   
    10     5     6 1   
    11     5     7 1   
    12     5    31 1   
    13     6    32 1   
    14     7     8 1   
    15     7     9 1   
    16     7    33 1   
    17     8    34 1   
    18     8    35 1   
    19     8    36 1   
    20     9    10 1   
    21     9    11 1   
    22     9    37 1   
    23    10    38 1   
    24    10    39 1   
    25    10    40 1   
    26    11    25 1   
    27    12    13 1   
    28    12    14 1   
    29    12    41 1   
    30    13    42 1   
    31    13    43 1   
    32    13    44 1   
    33    14    15 1   
    34    14    45 1   
    35    14    46 1   
    36    15    16 1   
    37    15    17 1   
    38    15    47 1   
    39    16    48 1   
    40    16    49 1   
    41    16    50 1   
    42    17    18 1   
    43    17    19 1   
    44    17    51 1   
    45    18    52 1   
    46    19    20 1   
    47    19    21 1   
    48    19    53 1   
    49    20    54 1   
    50    20    55 1   
    51    20    56 1   
    52    21    22 1   
    53    21    23 1   
    54    21    57 1   
    55    22    58 1   
    56    23    24 1   
    57    23    25 1   
    58    23    59 1   
    59    24    60 1   
    60    24    61 1   
    61    24    62 1   
    62    25    26 2   
@<TRIPOS>SUBSTRUCTURE
     1 QR8         1 TEMP              0 ****  ****    0 ROOT
