@<TRIPOS>MOLECULE
QR8
   62    62     1     0     0
SMALL
bcc


@<TRIPOS>ATOM
      1 O11         -6.3090     2.4640     7.3070 o          1 QR8      -0.537100
      2 C9          -5.3430     3.1530     7.0530 c          1 QR8       0.574100
      3 C10         -5.3430     4.6490     7.3170 c3         1 QR8      -0.195700
      4 C34         -4.5110     4.8240     8.6020 c3         1 QR8      -0.082100
      5 C11         -6.7720     5.2220     7.4060 c3         1 QR8       0.177100
      6 O12         -7.3530     4.9500     8.6670 oh         1 QR8      -0.605800
      7 C12         -6.9260     6.7440     7.1550 c3         1 QR8      -0.057700
      8 C35         -5.7390     7.6180     7.5500 c3         1 QR8      -0.080100
      9 C13         -7.4400     7.0250     5.7410 c3         1 QR8       0.155100
     10 C36         -7.7570     8.4870     5.4810 c3         1 QR8      -0.116100
     11 O2          -6.4470     6.5450     4.8060 os         1 QR8      -0.425900
     12 C8          -4.0580     2.5490     6.5160 c3         1 QR8      -0.155700
     13 C33         -3.6840     1.2660     7.2510 c3         1 QR8      -0.080100
     14 C7          -4.1020     2.4520     4.9760 c3         1 QR8      -0.058400
     15 C6          -5.2420     1.7060     4.2800 c3         1 QR8      -0.090700
     16 C32         -5.3810     0.2390     4.6860 c3         1 QR8      -0.095100
     17 C5          -5.1060     1.7910     2.7420 c3         1 QR8       0.150100
     18 O7          -3.9730     1.0660     2.3030 oh         1 QR8      -0.602800
     19 C4          -4.9780     3.2020     2.1400 c3         1 QR8      -0.042700
     20 C31         -4.8530     3.1100     0.6170 c3         1 QR8      -0.073100
     21 C3          -6.1360     4.1080     2.5940 c3         1 QR8       0.161100
     22 O3          -7.2230     3.9250     1.7240 oh         1 QR8      -0.593800
     23 C2          -5.7290     5.5970     2.7600 c3         1 QR8      -0.156700
     24 C30         -5.5090     6.3710     1.4630 c3         1 QR8      -0.077100
     25 C1          -6.8250     6.2380     3.5760 c          1 QR8       0.637100
     26 O1          -7.9520     6.3940     3.1600 o          1 QR8      -0.554000
     27 H1          -4.8060     5.1340     6.4940 hc         1 QR8       0.081700
     28 H2          -3.4880     4.4780     8.4540 hc         1 QR8       0.043033
     29 H3          -4.4500     5.8640     8.9050 hc         1 QR8       0.043033
     30 H4          -4.9320     4.2620     9.4340 hc         1 QR8       0.043033
     31 H5          -7.3650     4.7180     6.6280 h1         1 QR8       0.034700
     32 H6          -7.3960     3.9930     8.7660 ho         1 QR8       0.422000
     33 H7          -7.7670     7.0460     7.7880 hc         1 QR8       0.076700
     34 H8          -5.5360     7.5390     8.6170 hc         1 QR8       0.039033
     35 H9          -4.8250     7.3630     7.0120 hc         1 QR8       0.039033
     36 H10         -5.9480     8.6690     7.3560 hc         1 QR8       0.039033
     37 H11         -8.3520     6.4380     5.5980 h1         1 QR8       0.062700
     38 H12         -8.4090     8.8630     6.2700 hc         1 QR8       0.051700
     39 H13         -6.8600     9.1040     5.4630 hc         1 QR8       0.051700
     40 H14         -8.2790     8.6140     4.5350 hc         1 QR8       0.051700
     41 H15         -3.2570     3.2700     6.7050 hc         1 QR8       0.054700
     42 H16         -3.4610     1.4800     8.2980 hc         1 QR8       0.042367
     43 H17         -4.4690     0.5160     7.2310 hc         1 QR8       0.042367
     44 H18         -2.7880     0.8280     6.8100 hc         1 QR8       0.042367
     45 H19         -3.1480     2.0210     4.6590 hc         1 QR8       0.046700
     46 H20         -4.0880     3.4830     4.6110 hc         1 QR8       0.046700
     47 H21         -6.1920     2.1790     4.5450 hc         1 QR8       0.056700
     48 H22         -5.7900     0.1440     5.6890 hc         1 QR8       0.038700
     49 H23         -6.0730    -0.2780     4.0150 hc         1 QR8       0.038700
     50 H24         -4.4320    -0.3010     4.6680 hc         1 QR8       0.038700
     51 H25         -6.0230     1.3420     2.3260 h1         1 QR8       0.042700
     52 H26         -4.1100     0.1360     2.5060 ho         1 QR8       0.406000
     53 H27         -4.0510     3.6480     2.5180 hc         1 QR8       0.055700
     54 H28         -3.9140     2.6360     0.3400 hc         1 QR8       0.040700
     55 H29         -5.6620     2.5220     0.1820 hc         1 QR8       0.040700
     56 H30         -4.8700     4.0900     0.1460 hc         1 QR8       0.040700
     57 H31         -6.4220     3.7930     3.6070 h1         1 QR8       0.026700
     58 H32         -7.9430     4.5000     2.0070 ho         1 QR8       0.426000
     59 H33         -4.8090     5.6110     3.3470 hc         1 QR8       0.075700
     60 H34         -5.3590     7.4310     1.6660 hc         1 QR8       0.048700
     61 H35         -4.6180     6.0140     0.9510 hc         1 QR8       0.048700
     62 H36         -6.3540     6.2730     0.7840 hc         1 QR8       0.048700
@<TRIPOS>BOND
     1     1     2 2   
     2     2     3 1   
     3     2    12 1   
     4     3     4 1   
     5     3     5 1   
     6     3    27 1   
     7     4    28 1   
     8     4    29 1   
     9     4    30 1   
    10     5     6 1   
    11     5     7 1   
    12     5    31 1   
    13     6    32 1   
    14     7     8 1   
    15     7     9 1   
    16     7    33 1   
    17     8    34 1   
    18     8    35 1   
    19     8    36 1   
    20     9    10 1   
    21     9    11 1   
    22     9    37 1   
    23    10    38 1   
    24    10    39 1   
    25    10    40 1   
    26    11    25 1   
    27    12    13 1   
    28    12    14 1   
    29    12    41 1   
    30    13    42 1   
    31    13    43 1   
    32    13    44 1   
    33    14    15 1   
    34    14    45 1   
    35    14    46 1   
    36    15    16 1   
    37    15    17 1   
    38    15    47 1   
    39    16    48 1   
    40    16    49 1   
    41    16    50 1   
    42    17    18 1   
    43    17    19 1   
    44    17    51 1   
    45    18    52 1   
    46    19    20 1   
    47    19    21 1   
    48    19    53 1   
    49    20    54 1   
    50    20    55 1   
    51    20    56 1   
    52    21    22 1   
    53    21    23 1   
    54    21    57 1   
    55    22    58 1   
    56    23    24 1   
    57    23    25 1   
    58    23    59 1   
    59    24    60 1   
    60    24    61 1   
    61    24    62 1   
    62    25    26 2   
@<TRIPOS>SUBSTRUCTURE
     1 QR8         1 TEMP              0 ****  ****    0 ROOT
