@<TRIPOS>MOLECULE
QRB
   43    45     1     0     0
SMALL
bcc


@<TRIPOS>ATOM
      1 OAD         -9.0950    25.9970    -4.7880 oh         1 QRB      -0.372100
      2 NAC         -7.9090    26.5750    -4.4590 ns         1 QRB      -0.461400
      3 CAB         -6.7980    26.3100    -5.1700 c          1 QRB       0.687700
      4 OAE         -6.7490    25.4590    -6.0420 o          1 QRB      -0.570100
      5 CAA         -5.6110    27.1260    -4.7790 ca         1 QRB      -0.154600
      6 CAI         -5.7120    28.4440    -4.3370 ca         1 QRB      -0.086500
      7 CAJ         -4.5740    29.1590    -4.0050 ca         1 QRB      -0.130000
      8 CAF         -4.3480    26.5570    -4.9040 ca         1 QRB      -0.086500
      9 CAG         -3.2120    27.2730    -4.5600 ca         1 QRB      -0.130000
     10 CAH         -3.3110    28.5810    -4.0980 ca         1 QRB      -0.088300
     11 CAK         -2.1020    29.3850    -3.6710 c3         1 QRB       0.272100
     12 NAL         -0.8270    28.8520    -4.0680 nh         1 QRB      -0.692000
     13 CAO         -0.0940    28.0540    -3.1000 c6         1 QRB       0.232800
     14 CAQ          1.3960    28.0980    -3.3710 c6         1 QRB      -0.090400
     15 CAP          1.6660    27.6100    -4.7840 c6         1 QRB      -0.021100
     16 CAN          0.8130    28.3530    -5.7760 ca         1 QRB      -0.168300
     17 CAT          1.2260    28.4830    -7.0890 ca         1 QRB      -0.056000
     18 CAM         -0.4090    28.9360    -5.3700 ca         1 QRB       0.225600
     19 CAR         -1.1680    29.6160    -6.3400 ca         1 QRB      -0.219000
     20 CAS         -0.7230    29.7330    -7.6420 ca         1 QRB      -0.027000
     21 CAU          0.4780    29.1620    -8.0520 ca         1 QRB      -0.207600
     22 CAV          0.9100    29.3350    -9.4630 c          1 QRB       0.692700
     23 OAX          0.4190    30.1990   -10.1810 o          1 QRB      -0.613100
     24 NAW          1.8730    28.5040    -9.9100 nt         1 QRB      -0.674000
     25 H1          -9.1420    25.1650    -4.2970 ho         1 QRB       0.398000
     26 H2          -7.9410    27.2120    -3.6770 hn         1 QRB       0.340500
     27 H3          -6.6730    28.9400    -4.2720 ha         1 QRB       0.143500
     28 H4          -4.6710    30.1880    -3.6770 ha         1 QRB       0.139000
     29 H5          -4.2480    25.5410    -5.2630 ha         1 QRB       0.143500
     30 H6          -2.2440    26.7990    -4.6610 ha         1 QRB       0.139000
     31 H7          -2.2130    30.4150    -4.0220 h1         1 QRB       0.060700
     32 H8          -2.1040    29.4560    -2.5810 h1         1 QRB       0.060700
     33 H9          -0.3080    28.4500    -2.1070 h1         1 QRB       0.039200
     34 H10         -0.4360    27.0120    -3.1070 h1         1 QRB       0.039200
     35 H11          1.9120    27.4750    -2.6410 hc         1 QRB       0.054700
     36 H12          1.7620    29.1200    -3.2450 hc         1 QRB       0.054700
     37 H13          1.4510    26.5380    -4.8410 hc         1 QRB       0.048200
     38 H14          2.7210    27.7250    -5.0410 hc         1 QRB       0.048200
     39 H15          2.1870    28.0490    -7.3430 ha         1 QRB       0.121000
     40 H16         -2.1190    30.0620    -6.0870 ha         1 QRB       0.138000
     41 H17         -1.3350    30.2720    -8.3530 ha         1 QRB       0.152000
     42 H18          2.1660    28.5660   -10.8710 hn         1 QRB       0.309000
     43 H19          2.1630    27.6860    -9.4040 hn         1 QRB       0.309000
@<TRIPOS>BOND
     1     1     2 1   
     2     1    25 1   
     3     2     3 1   
     4     2    26 1   
     5     3     4 2   
     6     3     5 1   
     7     5     6 ar  
     8     5     8 ar  
     9     6     7 ar  
    10     6    27 1   
    11     7    10 ar  
    12     7    28 1   
    13     8     9 ar  
    14     8    29 1   
    15     9    10 ar  
    16     9    30 1   
    17    10    11 1   
    18    11    12 1   
    19    11    31 1   
    20    11    32 1   
    21    12    13 1   
    22    12    18 1   
    23    13    14 1   
    24    13    33 1   
    25    13    34 1   
    26    14    15 1   
    27    14    35 1   
    28    14    36 1   
    29    15    16 1   
    30    15    37 1   
    31    15    38 1   
    32    16    17 ar  
    33    16    18 ar  
    34    17    21 ar  
    35    17    39 1   
    36    18    19 ar  
    37    19    20 ar  
    38    19    40 1   
    39    20    21 ar  
    40    20    41 1   
    41    21    22 1   
    42    22    23 2   
    43    22    24 1   
    44    24    42 1   
    45    24    43 1   
@<TRIPOS>SUBSTRUCTURE
     1 QRB         1 TEMP              0 ****  ****    0 ROOT
