@<TRIPOS>MOLECULE
QRB
   43    45     1     0     0
SMALL
No Charge or Current Charge


@<TRIPOS>ATOM
      1 OAD         -8.6760    26.1650    -6.3980 oh         1 QRB      -0.411100
      2 NAC         -7.6270    26.8150    -5.6390 ns         1 QRB      -0.394400
      3 CAB         -6.4880    26.1170    -5.2450 c          1 QRB       0.620700
      4 OAE         -6.4290    24.8960    -5.3270 o          1 QRB      -0.570100
      5 CAA         -5.3370    26.9420    -4.6970 ca         1 QRB      -0.154600
      6 CAI         -5.4290    28.3440    -4.5180 ca         1 QRB      -0.068500
      7 CAJ         -4.3400    29.0730    -4.0080 ca         1 QRB      -0.112000
      8 CAF         -4.1290    26.2990    -4.3440 ca         1 QRB      -0.068500
      9 CAG         -3.0440    27.0320    -3.8350 ca         1 QRB      -0.112000
     10 CAH         -3.1370    28.4260    -3.6670 ca         1 QRB      -0.088300
     11 CAK         -1.9580    29.2310    -3.1130 c3         1 QRB       0.272100
     12 NAL         -0.6460    28.9270    -3.7420 nh         1 QRB      -0.830400
     13 CAO          0.3480    28.2390    -2.8710 c6         1 QRB       0.232800
     14 CAQ          1.7470    28.1860    -3.5110 c6         1 QRB      -0.090400
     15 CAP          1.6680    27.5850    -4.9230 c6         1 QRB      -0.021100
     16 CAN          0.6470    28.3450    -5.7690 ca         1 QRB      -0.168300
     17 CAT          0.8210    28.3940    -7.1660 ca         1 QRB      -0.038000
     18 CAM         -0.4500    28.9970    -5.1560 ca         1 QRB       0.364000
     19 CAR         -1.3350    29.7240    -5.9750 ca         1 QRB      -0.201000
     20 CAS         -1.1590    29.7780    -7.3670 ca         1 QRB      -0.009000
     21 CAU         -0.0830    29.1090    -7.9830 ca         1 QRB      -0.207600
     22 CAV          0.0760    29.1830    -9.4830 c          1 QRB       0.625700
     23 OAX         -0.6930    29.8050   -10.1980 o          1 QRB      -0.613100
     24 NAW          1.1140    28.5330   -10.0500 nt         1 QRB      -0.607000
     25 H1          -9.4990    26.4060    -5.9110 ho         1 QRB       0.437000
     26 H2          -7.5870    27.8290    -5.7100 hn         1 QRB       0.340500
     27 H3          -6.3370    28.8880    -4.7620 ha         1 QRB       0.125500
     28 H4          -4.4350    30.1490    -3.8780 ha         1 QRB       0.121000
     29 H5          -4.0230    25.2230    -4.4670 ha         1 QRB       0.125500
     30 H6          -2.1250    26.5130    -3.5760 ha         1 QRB       0.121000
     31 H7          -2.1680    30.3040    -3.2170 h1         1 QRB       0.060700
     32 H8          -1.9080    29.0390    -2.0320 h1         1 QRB       0.060700
     33 H9           0.4270    28.7560    -1.9030 h1         1 QRB       0.039200
     34 H10          0.0120    27.2110    -2.6660 h1         1 QRB       0.039200
     35 H11          2.4270    27.5960    -2.8820 hc         1 QRB       0.054700
     36 H12          2.1640    29.2010    -3.5630 hc         1 QRB       0.054700
     37 H13          1.3800    26.5260    -4.8640 hc         1 QRB       0.048200
     38 H14          2.6610    27.6170    -5.3920 hc         1 QRB       0.048200
     39 H15          1.6700    27.8740    -7.6020 ha         1 QRB       0.103000
     40 H16         -2.1720    30.2610    -5.5440 ha         1 QRB       0.120000
     41 H17         -1.8690    30.3470    -7.9660 ha         1 QRB       0.134000
     42 H18          1.2320    28.5740   -11.0510 hn         1 QRB       0.309000
     43 H19          1.7610    28.0130    -9.4780 hn         1 QRB       0.309000
@<TRIPOS>BOND
     1     1     2 1   
     2     1    25 1   
     3     2     3 1   
     4     2    26 1   
     5     3     4 2   
     6     3     5 1   
     7     5     6 ar  
     8     5     8 ar  
     9     6     7 ar  
    10     6    27 1   
    11     7    10 ar  
    12     7    28 1   
    13     8     9 ar  
    14     8    29 1   
    15     9    10 ar  
    16     9    30 1   
    17    10    11 1   
    18    11    12 1   
    19    11    31 1   
    20    11    32 1   
    21    12    13 1   
    22    12    18 1   
    23    13    14 1   
    24    13    33 1   
    25    13    34 1   
    26    14    15 1   
    27    14    35 1   
    28    14    36 1   
    29    15    16 1   
    30    15    37 1   
    31    15    38 1   
    32    16    17 ar  
    33    16    18 ar  
    34    17    21 ar  
    35    17    39 1   
    36    18    19 ar  
    37    19    20 ar  
    38    19    40 1   
    39    20    21 ar  
    40    20    41 1   
    41    21    22 1   
    42    22    23 2   
    43    22    24 1   
    44    24    42 1   
    45    24    43 1   
@<TRIPOS>SUBSTRUCTURE
     1 QRB         1 TEMP              0 ****  ****    0 ROOT
