@<TRIPOS>MOLECULE
QRC
   45    47     1     0     0
SMALL
abcg2


@<TRIPOS>ATOM
      1 C18        -43.8690   -32.4650    -0.3010 ca         1 QRC       0.126100
      2 C16        -43.4140   -30.0680     0.6410 c5         1 QRC      -0.005100
      3 C17        -44.2300   -31.3050     0.3750 ca         1 QRC      -0.087300
      4 C12        -44.2070   -29.3500     1.7700 c5         1 QRC      -0.203700
      5 C11        -45.6680   -29.8260     1.5490 c5         1 QRC       0.165000
      6 C20        -44.7970   -33.5010    -0.4270 ca         1 QRC      -0.211000
      7 C01        -53.3070   -28.9520    10.0200 c3         1 QRC       0.115300
      8 C03        -51.7260   -29.2000     8.1690 c          1 QRC       0.658100
      9 C05        -49.7990   -29.3680     6.5790 ca         1 QRC      -0.004000
     10 C06        -48.4000   -29.4710     6.5310 ca         1 QRC      -0.174500
     11 C07        -47.7310   -29.5010     5.3220 ca         1 QRC      -0.041500
     12 C08        -48.4310   -29.4300     4.1120 ca         1 QRC      -0.160600
     13 C21        -46.0720   -33.3680     0.1160 ca         1 QRC      -0.094000
     14 C22        -46.4460   -32.2050     0.7870 ca         1 QRC      -0.117000
     15 C23        -45.5100   -31.1880     0.9050 ca         1 QRC      -0.043300
     16 C25        -49.8200   -29.3260     4.1680 ca         1 QRC      -0.041500
     17 C26        -50.5070   -29.3010     5.3720 ca         1 QRC      -0.174500
     18 N02        -51.9620   -29.1250     9.5020 ns         1 QRC      -0.536900
     19 N10        -46.4780   -29.8050     2.7450 ns         1 QRC      -0.474900
     20 O19        -42.6020   -32.5440    -0.8120 oh         1 QRC      -0.540100
     21 O27        -52.6320   -29.1600     7.3370 o          1 QRC      -0.629100
     22 H161       -43.3630   -29.4410    -0.2550 hc         1 QRC       0.051700
     23 H162       -42.3860   -30.2840     0.9350 hc         1 QRC       0.051700
     24 H121       -44.1390   -28.2680     1.6580 hc         1 QRC       0.053700
     25 H111       -46.1490   -29.1590     0.8300 h1         1 QRC       0.061700
     26 H201       -44.5120   -34.4100    -0.9470 ha         1 QRC       0.092000
     27 H011       -53.2510   -28.9400    11.1060 h1         1 QRC       0.037367
     28 H012       -53.7510   -28.0150     9.6780 h1         1 QRC       0.037367
     29 H013       -53.9550   -29.7740     9.7110 h1         1 QRC       0.037367
     30 H061       -47.8390   -29.5160     7.4570 ha         1 QRC       0.124000
     31 H071       -46.6510   -29.5620     5.3400 ha         1 QRC       0.141000
     32 H211       -46.7770   -34.1840     0.0110 ha         1 QRC       0.094000
     33 H221       -47.4370   -32.1030     1.2120 ha         1 QRC       0.119000
     34 H251       -50.3730   -29.2650     3.2400 ha         1 QRC       0.141000
     35 H261       -51.5810   -29.2250     5.3860 ha         1 QRC       0.124000
     36 H021       -51.1950   -29.0960    10.1520 hn         1 QRC       0.310500
     37 H041       -49.7360   -29.3780     8.6110 hn         1 QRC       0.140000
     38 H101       -45.9870   -30.1570     3.5610 hn         1 QRC       0.375500
     39 H191       -42.4690   -33.4080    -1.2250 ho         1 QRC       0.443000
     40 C13        -43.5720   -29.6950     3.1420 c          1 QRC       0.719000
     41 C09        -47.7690   -29.4330     2.7720 c          1 QRC       0.606700
     42 O14        -42.4920   -29.1120     3.3940 o          1 QRC      -0.730000
     43 O15        -44.1480   -30.5330     3.8930 o          1 QRC      -0.730000
     44 O24        -48.3910   -29.1040     1.7520 o          1 QRC      -0.664100
     45 N04        -50.3870   -29.3330     7.8410 ns         1 QRC      -0.162000
@<TRIPOS>BOND
     1     1     3 ar  
     2     1     6 ar  
     3     1    20 1   
     4     2     3 1   
     5     2     4 1   
     6     2    22 1   
     7     2    23 1   
     8     3    15 ar  
     9     4     5 1   
    10     4    24 1   
    11     4    40 1   
    12     5    15 1   
    13     5    19 1   
    14     5    25 1   
    15     6    13 ar  
    16     6    26 1   
    17     7    18 1   
    18     7    27 1   
    19     7    28 1   
    20     7    29 1   
    21     8    18 1   
    22     8    21 2   
    23     8    45 1   
    24     9    10 ar  
    25     9    17 ar  
    26     9    45 1   
    27    10    11 ar  
    28    10    30 1   
    29    11    12 ar  
    30    11    31 1   
    31    12    16 ar  
    32    12    41 1   
    33    13    14 ar  
    34    13    32 1   
    35    14    15 ar  
    36    14    33 1   
    37    16    17 ar  
    38    16    34 1   
    39    17    35 1   
    40    18    36 1   
    41    19    38 1   
    42    19    41 1   
    43    20    39 1   
    44    37    45 1   
    45    40    42 1   
    46    40    43 1   
    47    41    44 2   
@<TRIPOS>SUBSTRUCTURE
     1 QRC         1 TEMP              0 ****  ****    0 ROOT
