@<TRIPOS>MOLECULE
QRC
   45    47     1     0     0
SMALL
No Charge or Current Charge


@<TRIPOS>ATOM
      1 C18        -43.3730   -32.4050    -0.0410 ca         1 QRC       0.126100
      2 C16        -43.6260   -29.8920     0.6180 c5         1 QRC      -0.005100
      3 C17        -44.1190   -31.3050     0.4200 ca         1 QRC      -0.087300
      4 C12        -44.7900   -29.2680     1.4910 c5         1 QRC      -0.203700
      5 C11        -46.0820   -30.1480     1.1870 c5         1 QRC       0.165000
      6 C20        -44.0040   -33.6560    -0.1690 ca         1 QRC      -0.211000
      7 C01        -52.9480   -28.6900    10.4530 c3         1 QRC       0.115300
      8 C03        -51.5920   -28.8080     8.3450 c          1 QRC       0.658100
      9 C05        -49.9260   -29.4320     6.4930 ca         1 QRC      -0.004000
     10 C06        -48.9240   -30.3710     6.1930 ca         1 QRC      -0.174500
     11 C07        -48.2340   -30.3310     4.9690 ca         1 QRC      -0.041500
     12 C08        -48.5350   -29.3380     4.0070 ca         1 QRC      -0.160600
     13 C21        -45.3680   -33.7970     0.1580 ca         1 QRC      -0.094000
     14 C22        -46.1030   -32.6860     0.6140 ca         1 QRC      -0.117000
     15 C23        -45.4560   -31.4450     0.7420 ca         1 QRC      -0.043300
     16 C25        -49.5400   -28.3940     4.3130 ca         1 QRC      -0.041500
     17 C26        -50.2280   -28.4400     5.5390 ca         1 QRC      -0.174500
     18 N02        -51.9120   -29.2730     9.5980 ns         1 QRC      -0.536900
     19 N10        -46.8700   -30.2220     2.4200 ns         1 QRC      -0.474900
     20 O19        -42.0560   -32.2700    -0.3660 oh         1 QRC      -0.540100
     21 O27        -52.1660   -27.8510     7.8440 o          1 QRC      -0.629100
     22 H161       -43.5280   -29.3750    -0.3440 hc         1 QRC       0.051700
     23 H162       -42.6500   -29.8410     1.1130 hc         1 QRC       0.051700
     24 H121       -44.9700   -28.2250     1.2100 hc         1 QRC       0.053700
     25 H111       -46.6510   -29.7330     0.3440 h1         1 QRC       0.061700
     26 H201       -43.4460   -34.5190    -0.5230 ha         1 QRC       0.092000
     27 H011       -53.0000   -29.2480    11.3970 h1         1 QRC       0.037367
     28 H012       -52.7050   -27.6410    10.6660 h1         1 QRC       0.037367
     29 H013       -53.9200   -28.7450     9.9460 h1         1 QRC       0.037367
     30 H061       -48.6740   -31.1440     6.9170 ha         1 QRC       0.124000
     31 H071       -47.4670   -31.0810     4.7930 ha         1 QRC       0.141000
     32 H211       -45.8550   -34.7640     0.0550 ha         1 QRC       0.094000
     33 H221       -47.1580   -32.7870     0.8590 ha         1 QRC       0.119000
     34 H251       -49.7970   -27.6160     3.5970 ha         1 QRC       0.141000
     35 H261       -50.9910   -27.6920     5.7250 ha         1 QRC       0.124000
     36 H021       -51.3910   -30.0710     9.9430 hn         1 QRC       0.310500
     37 H041       -50.2270   -30.3000     8.3220 hn         1 QRC       0.140000
     38 H101       -46.6910   -30.9040     3.1430 hn         1 QRC       0.375500
     39 H191       -41.7240   -33.1440    -0.6620 ho         1 QRC       0.443000
     40 C13        -44.3650   -29.2830     2.9870 c          1 QRC       0.719000
     41 C09        -47.8200   -29.2520     2.6720 c          1 QRC       0.606700
     42 O14        -44.2910   -28.2150     3.5760 o          1 QRC      -0.730000
     43 O15        -44.0910   -30.3380     3.5410 o          1 QRC      -0.730000
     44 O24        -48.0800   -28.3720     1.8600 o          1 QRC      -0.664100
     45 N04        -50.5760   -29.5410     7.7520 ns         1 QRC      -0.162000
@<TRIPOS>BOND
     1     1     3 ar  
     2     1     6 ar  
     3     1    20 1   
     4     2     3 1   
     5     2     4 1   
     6     2    22 1   
     7     2    23 1   
     8     3    15 ar  
     9     4     5 1   
    10     4    24 1   
    11     4    40 1   
    12     5    15 1   
    13     5    19 1   
    14     5    25 1   
    15     6    13 ar  
    16     6    26 1   
    17     7    18 1   
    18     7    27 1   
    19     7    28 1   
    20     7    29 1   
    21     8    18 1   
    22     8    21 2   
    23     8    45 1   
    24     9    10 ar  
    25     9    17 ar  
    26     9    45 1   
    27    10    11 ar  
    28    10    30 1   
    29    11    12 ar  
    30    11    31 1   
    31    12    16 ar  
    32    12    41 1   
    33    13    14 ar  
    34    13    32 1   
    35    14    15 ar  
    36    14    33 1   
    37    16    17 ar  
    38    16    34 1   
    39    17    35 1   
    40    18    36 1   
    41    19    38 1   
    42    19    41 1   
    43    20    39 1   
    44    37    45 1   
    45    40    42 1   
    46    40    43 1   
    47    41    44 2   
@<TRIPOS>SUBSTRUCTURE
     1 QRC         1 TEMP              0 ****  ****    0 ROOT
