@<TRIPOS>MOLECULE
QRD
   48    50     1     0     0
SMALL
abcg2


@<TRIPOS>ATOM
      1 N1           9.8780    -9.7990     5.1680 nb         1 QRD      -0.261000
      2 C7           6.2380   -11.8370    10.3720 ca         1 QRD      -0.049000
      3 C8           5.1650   -12.3100    11.1200 ca         1 QRD      -0.194300
      4 N2          10.6950   -11.8360     8.6500 n          1 QRD      -0.365300
      5 C9           4.1250   -11.3290    11.5760 c3         1 QRD       0.346300
      6 C1          11.1360   -10.0380     5.6380 ca         1 QRD       0.422900
      7 C5           8.3120   -12.1620     9.0490 cc         1 QRD      -0.175400
      8 C6           7.2200   -12.7000     9.8880 ca         1 QRD      -0.019800
      9 N3          14.1530    -9.6850    12.2490 n8         1 QRD      -1.001200
     10 C4           8.0410   -11.4990     7.8950 cd         1 QRD      -0.021200
     11 C3           9.0820   -10.9740     7.0950 ca         1 QRD      -0.314800
     12 C2           8.8910   -10.2700     5.8970 ca         1 QRD       0.209900
     13 N4          11.4420   -10.7020     6.7610 nb         1 QRD      -0.307000
     14 C13          9.6890   -12.2920     9.5150 c          1 QRD       0.578200
     15 C14         12.0940   -12.0450     9.0570 c3         1 QRD       0.099000
     16 C15         12.6590   -10.8710     9.8500 c3         1 QRD      -0.094400
     17 C16         14.1230   -11.1080    10.2170 c3         1 QRD      -0.071400
     18 C17         14.7710    -9.9320    10.9380 c3         1 QRD       0.155800
     19 C18         10.4250   -11.1630     7.4850 ca         1 QRD       0.315900
     20 N           12.1430    -9.5520     4.8990 nu         1 QRD      -0.913100
     21 C           13.5450    -9.7080     5.2320 c3         1 QRD       0.229100
     22 C12          7.0790   -14.0620    10.1820 ca         1 QRD       0.174000
     23 CL           8.2000   -15.2220     9.5190 cl         1 QRD      -0.184000
     24 C11          6.0260   -14.5410    10.9480 ca         1 QRD      -0.112000
     25 C10          5.0620   -13.6610    11.4220 ca         1 QRD      -0.049000
     26 F            3.5130   -10.7170    10.5310 f          1 QRD      -0.112333
     27 F1           4.6540   -10.3360    12.3300 f          1 QRD      -0.112333
     28 F2           3.1510   -11.9020    12.3100 f          1 QRD      -0.112333
     29 H1           6.3240   -10.7810    10.1550 ha         1 QRD       0.131000
     30 H2          14.6760    -8.9680    12.7410 hn         1 QRD       0.393000
     31 H3          13.2180    -9.3090    12.1270 hn         1 QRD       0.393000
     32 H5           7.0160   -11.3730     7.5660 ha         1 QRD       0.191000
     33 H6           7.8800   -10.0950     5.5400 h4         1 QRD       0.027100
     34 H7          12.1150   -12.9530     9.6540 h1         1 QRD       0.072200
     35 H8          12.6710   -12.2020     8.1500 h1         1 QRD       0.072200
     36 H9          12.5720    -9.9600     9.2520 hc         1 QRD       0.052200
     37 H10         12.0550   -10.7320    10.7490 hc         1 QRD       0.052200
     38 H11         14.2040   -12.0020    10.8450 hc         1 QRD       0.047200
     39 H12         14.6910   -11.3070     9.3020 hc         1 QRD       0.047200
     40 H13         15.8260   -10.1580    11.1080 h1         1 QRD       0.025700
     41 H14         14.7360    -9.0500    10.2810 h1         1 QRD       0.025700
     42 H15         11.8870    -9.0610     4.0580 hn         1 QRD       0.515000
     43 H16         14.1310    -9.1910     4.4760 h1         1 QRD       0.047033
     44 H17         13.7660    -9.2780     6.2100 h1         1 QRD       0.047033
     45 H18         13.8330   -10.7610     5.2480 h1         1 QRD       0.047033
     46 H19          5.9490   -15.5990    11.1550 ha         1 QRD       0.138000
     47 H20          4.2370   -14.0370    12.0100 ha         1 QRD       0.137000
     48 O            9.9910   -12.7640    10.6100 o          1 QRD      -0.523000
@<TRIPOS>BOND
     1     1     6 ar  
     2     1    12 ar  
     3     2     3 ar  
     4     2     8 ar  
     5     2    29 1   
     6     3     5 1   
     7     3    25 ar  
     8     4    14 1   
     9     4    15 1   
    10     4    19 1   
    11     5    26 1   
    12     5    27 1   
    13     5    28 1   
    14     6    13 ar  
    15     6    20 1   
    16     7     8 1   
    17     7    10 2   
    18     7    14 1   
    19     8    22 ar  
    20     9    18 1   
    21     9    30 1   
    22     9    31 1   
    23    10    11 1   
    24    10    32 1   
    25    11    12 ar  
    26    11    19 ar  
    27    12    33 1   
    28    13    19 ar  
    29    14    48 2   
    30    15    16 1   
    31    15    34 1   
    32    15    35 1   
    33    16    17 1   
    34    16    36 1   
    35    16    37 1   
    36    17    18 1   
    37    17    38 1   
    38    17    39 1   
    39    18    40 1   
    40    18    41 1   
    41    20    21 1   
    42    20    42 1   
    43    21    43 1   
    44    21    44 1   
    45    21    45 1   
    46    22    23 1   
    47    22    24 ar  
    48    24    25 ar  
    49    24    46 1   
    50    25    47 1   
@<TRIPOS>SUBSTRUCTURE
     1 QRD         1 TEMP              0 ****  ****    0 ROOT
