@<TRIPOS>MOLECULE
QRD
   48    50     1     0     0
SMALL
No Charge or Current Charge


@<TRIPOS>ATOM
      1 N1           9.9020    -9.9150     5.1260 nb         1 QRD      -0.261000
      2 C7           6.3000   -11.8250    10.4630 ca         1 QRD      -0.049000
      3 C8           5.1730   -12.2700    11.1890 ca         1 QRD      -0.194300
      4 N2          10.7220   -11.9140     8.7270 n          1 QRD      -0.365300
      5 C9           4.2630   -11.2600    11.8980 c3         1 QRD       0.346300
      6 C1          11.1340   -10.1220     5.6140 ca         1 QRD       0.422900
      7 C5           8.3030   -12.2460     9.0640 cc         1 QRD      -0.175400
      8 C6           7.1400   -12.7400     9.8000 ca         1 QRD      -0.019800
      9 N3          14.1750    -9.4770    12.2870 n8         1 QRD      -1.001200
     10 C4           8.0210   -11.5940     7.8860 cd         1 QRD      -0.021200
     11 C3           9.1090   -11.0690     7.0740 ca         1 QRD      -0.314800
     12 C2           8.8820   -10.3930     5.8630 ca         1 QRD       0.209900
     13 N4          11.4560   -10.7540     6.7540 nb         1 QRD      -0.307000
     14 C13          9.6940   -12.4340     9.5530 c          1 QRD       0.578200
     15 C14         12.1380   -12.0880     9.1600 c3         1 QRD       0.099000
     16 C15         12.7020   -10.8490     9.8890 c3         1 QRD      -0.094400
     17 C16         14.1820   -11.0210    10.3080 c3         1 QRD      -0.071400
     18 C17         14.8010    -9.7780    10.9860 c3         1 QRD       0.155800
     19 C18         10.4350   -11.2330     7.4930 ca         1 QRD       0.315900
     20 N           12.1710    -9.6210     4.8460 nu         1 QRD      -0.913100
     21 C           13.6170    -9.6910     5.1410 c3         1 QRD       0.229100
     22 C12          6.8440   -14.1180     9.8570 ca         1 QRD       0.174000
     23 Cl           7.8520   -15.2980     9.0170 cl         1 QRD      -0.184000
     24 C11          5.7210   -14.5680    10.5670 ca         1 QRD      -0.112000
     25 C10          4.8870   -13.6520    11.2300 ca         1 QRD      -0.049000
     26 F            3.3260   -10.7710    11.0560 f          1 QRD      -0.112333
     27 F1           4.9530   -10.2020    12.3800 f          1 QRD      -0.112333
     28 F2           3.6060   -11.8030    12.9490 f          1 QRD      -0.112333
     29 H1           6.5310   -10.7630    10.4120 ha         1 QRD       0.131000
     30 H2          14.5800    -8.6090    12.6600 hn         1 QRD       0.393000
     31 H3          13.1890    -9.2360    12.1330 hn         1 QRD       0.393000
     32 H5           6.9880   -11.4780     7.5610 ha         1 QRD       0.191000
     33 H6           7.8770   -10.2300     5.4770 h4         1 QRD       0.027100
     34 H7          12.2260   -12.9620     9.8200 h1         1 QRD       0.072200
     35 H8          12.7620   -12.3100     8.2850 h1         1 QRD       0.072200
     36 H9          12.6130    -9.9720     9.2360 hc         1 QRD       0.052200
     37 H10         12.0860   -10.6530    10.7750 hc         1 QRD       0.052200
     38 H11         14.2760   -11.8840    10.9790 hc         1 QRD       0.047200
     39 H12         14.7760   -11.2530     9.4150 hc         1 QRD       0.047200
     40 H13         15.8730    -9.9520    11.1510 h1         1 QRD       0.025700
     41 H14         14.6920    -8.9040    10.3280 h1         1 QRD       0.025700
     42 H15         11.8850    -9.1460     3.9880 hn         1 QRD       0.515000
     43 H16         14.1970    -9.2030     4.3460 h1         1 QRD       0.047033
     44 H17         13.8420    -9.1870     6.0910 h1         1 QRD       0.047033
     45 H18         13.9460   -10.7360     5.2150 h1         1 QRD       0.047033
     46 H19          5.4940   -15.6300    10.6000 ha         1 QRD       0.138000
     47 H20          4.0160   -14.0230    11.7690 ha         1 QRD       0.137000
     48 O            9.9360   -12.9980    10.6130 o          1 QRD      -0.523000
@<TRIPOS>BOND
     1     1     6 ar  
     2     1    12 ar  
     3     2     3 ar  
     4     2     8 ar  
     5     2    29 1   
     6     3     5 1   
     7     3    25 ar  
     8     4    14 1   
     9     4    15 1   
    10     4    19 1   
    11     5    26 1   
    12     5    27 1   
    13     5    28 1   
    14     6    13 ar  
    15     6    20 1   
    16     7     8 1   
    17     7    10 2   
    18     7    14 1   
    19     8    22 ar  
    20     9    18 1   
    21     9    30 1   
    22     9    31 1   
    23    10    11 1   
    24    10    32 1   
    25    11    12 ar  
    26    11    19 ar  
    27    12    33 1   
    28    13    19 ar  
    29    14    48 2   
    30    15    16 1   
    31    15    34 1   
    32    15    35 1   
    33    16    17 1   
    34    16    36 1   
    35    16    37 1   
    36    17    18 1   
    37    17    38 1   
    38    17    39 1   
    39    18    40 1   
    40    18    41 1   
    41    20    21 1   
    42    20    42 1   
    43    21    43 1   
    44    21    44 1   
    45    21    45 1   
    46    22    23 1   
    47    22    24 ar  
    48    24    25 ar  
    49    24    46 1   
    50    25    47 1   
@<TRIPOS>SUBSTRUCTURE
     1 QRD         1 TEMP              0 ****  ****    0 ROOT
