@<TRIPOS>MOLECULE
QRF
   57    61     1     0     0
SMALL
No Charge or Current Charge


@<TRIPOS>ATOM
      1 N1         -17.4830     3.5470    24.8150 nb         1 QRF      -0.652000
      2 N3         -19.7830     7.2860    35.8570 n          1 QRF      -0.414800
      3 C4         -20.2080     6.3480    27.6470 c          1 QRF       0.596100
      4 C5         -19.0250     5.2110    25.7060 ca         1 QRF      -0.074000
      5 C6         -18.5240     3.8960    25.6040 ca         1 QRF       0.307900
      6 C7         -16.9010     4.5210    24.0790 ca         1 QRF       0.358900
      7 C8         -17.3400     5.8590    24.0870 ca         1 QRF      -0.090000
      8 C10        -17.1650     8.1480    23.2720 ca         1 QRF      -0.106000
      9 C13        -18.4310     6.2230    24.9100 ca         1 QRF      -0.002000
     10 C15        -20.9530     5.4130    32.0710 ca         1 QRF       0.306000
     11 C17        -19.3750     5.5440    34.0270 c6         1 QRF       0.178800
     12 C20        -20.8500     7.4730    33.5380 c6         1 QRF       0.178800
     13 C21        -19.5570     7.7670    37.1690 c          1 QRF       0.541600
     14 C22        -19.5440     9.2530    37.3660 cc         1 QRF       0.073500
     15 C24        -19.4050    11.4730    37.1070 cd         1 QRF      -0.198000
     16 O1         -19.3520     6.9840    38.0910 o          1 QRF      -0.579100
     17 O2         -19.5110     9.8280    38.6230 os         1 QRF      -0.211000
     18 C25        -19.4460    11.1920    38.4440 cc         1 QRF       0.149900
     19 C23        -19.4540    10.2450    36.4170 cd         1 QRF      -0.142000
     20 C18        -19.4590     5.8600    35.5470 c6         1 QRF       0.095000
     21 C19        -20.9520     7.7790    35.0570 c6         1 QRF       0.095000
     22 N2         -20.5720     6.0310    33.2850 nh         1 QRF      -0.789400
     23 C16        -21.2260     4.0350    32.0510 ca         1 QRF      -0.141000
     24 C          -21.6040     3.4040    30.8590 ca         1 QRF       0.158000
     25 Cl         -21.9450     1.6790    30.8510 cl         1 QRF      -0.215000
     26 C14        -21.0650     6.1490    30.8740 ca         1 QRF      -0.150000
     27 C2         -21.4450     5.5220    29.6710 ca         1 QRF      -0.032300
     28 C1         -21.7140     4.1420    29.6710 ca         1 QRF      -0.126000
     29 C3         -21.5520     6.3290    28.3830 c3         1 QRF      -0.110100
     30 O          -19.2880     7.0820    27.9890 o          1 QRF      -0.563100
     31 N          -20.1070     5.4490    26.5960 ns         1 QRF      -0.174000
     32 C12        -18.8970     7.5570    24.8800 ca         1 QRF      -0.086000
     33 C11        -18.2630     8.5130    24.0680 ca         1 QRF      -0.093000
     34 C9         -16.7050     6.8220    23.2770 ca         1 QRF      -0.084000
     35 H1         -18.9650     3.0920    26.1930 h4         1 QRF       0.021100
     36 H2         -16.0650     4.2130    23.4520 h4         1 QRF       0.022100
     37 H3         -16.6770     8.8910    22.6450 ha         1 QRF       0.118000
     38 H4         -19.2500     4.4590    33.9040 h1         1 QRF       0.051200
     39 H5         -18.4720     6.0210    33.6190 h1         1 QRF       0.051200
     40 H6         -20.0520     8.0920    33.1020 h1         1 QRF       0.051200
     41 H7         -21.7960     7.7700    33.0620 h1         1 QRF       0.051200
     42 H8         -19.3280    12.4620    36.6670 ha         1 QRF       0.146000
     43 H9         -19.4230    11.8210    39.3240 h4         1 QRF       0.058100
     44 H10        -19.3880    10.1150    35.3410 ha         1 QRF       0.142000
     45 H11        -20.2300     5.2190    35.9960 h1         1 QRF       0.067200
     46 H12        -18.5010     5.5910    36.0130 h1         1 QRF       0.067200
     47 H13        -21.1280     8.8510    35.1940 h1         1 QRF       0.067200
     48 H14        -21.8530     7.2780    35.4380 h1         1 QRF       0.067200
     49 H15        -21.1560     3.4550    32.9650 ha         1 QRF       0.133000
     50 H16        -20.8430     7.2120    30.8690 ha         1 QRF       0.116000
     51 H17        -22.0080     3.6370    28.7530 ha         1 QRF       0.129000
     52 H18        -21.8400     7.3600    28.6170 hc         1 QRF       0.065700
     53 H19        -22.3190     5.8770    27.7410 hc         1 QRF       0.065700
     54 H20        -20.9140     4.8530    26.4590 hn         1 QRF       0.155000
     55 H21        -19.7550     7.8660    25.4690 ha         1 QRF       0.119000
     56 H22        -18.6260     9.5380    24.0530 ha         1 QRF       0.115000
     57 H23        -15.8620     6.5420    22.6490 ha         1 QRF       0.118000
@<TRIPOS>BOND
     1     1     5 ar  
     2     1     6 ar  
     3     2    13 1   
     4     2    20 1   
     5     2    21 1   
     6     3    29 1   
     7     3    30 2   
     8     3    31 1   
     9     4     5 ar  
    10     4     9 ar  
    11     4    31 1   
    12     5    35 1   
    13     6     7 ar  
    14     6    36 1   
    15     7     9 ar  
    16     7    34 ar  
    17     8    33 ar  
    18     8    34 ar  
    19     8    37 1   
    20     9    32 ar  
    21    10    22 1   
    22    10    23 ar  
    23    10    26 ar  
    24    11    20 1   
    25    11    22 1   
    26    11    38 1   
    27    11    39 1   
    28    12    21 1   
    29    12    22 1   
    30    12    40 1   
    31    12    41 1   
    32    13    14 1   
    33    13    16 2   
    34    14    17 1   
    35    14    19 2   
    36    15    18 2   
    37    15    19 1   
    38    15    42 1   
    39    17    18 1   
    40    18    43 1   
    41    19    44 1   
    42    20    45 1   
    43    20    46 1   
    44    21    47 1   
    45    21    48 1   
    46    23    24 ar  
    47    23    49 1   
    48    24    25 1   
    49    24    28 ar  
    50    26    27 ar  
    51    26    50 1   
    52    27    28 ar  
    53    27    29 1   
    54    28    51 1   
    55    29    52 1   
    56    29    53 1   
    57    31    54 1   
    58    32    33 ar  
    59    32    55 1   
    60    33    56 1   
    61    34    57 1   
@<TRIPOS>SUBSTRUCTURE
     1 QRF         1 TEMP              0 ****  ****    0 ROOT
