@<TRIPOS>MOLECULE
QRF
   57    61     1     0     0
SMALL
abcg2


@<TRIPOS>ATOM
      1 N1         -17.7760     4.7080    23.9660 nb         1 QRF      -0.652000
      2 N3         -20.1620     7.3800    35.4870 n          1 QRF      -0.414800
      3 C4         -20.2860     5.3360    27.8670 c          1 QRF       0.596100
      4 C5         -19.1790     5.6200    25.6970 ca         1 QRF      -0.074000
      5 C6         -18.8390     4.6340    24.8050 ca         1 QRF       0.307900
      6 C7         -17.0200     5.7810    24.0270 ca         1 QRF       0.358900
      7 C8         -17.2660     6.8690    24.8980 ca         1 QRF      -0.090000
      8 C10        -16.7310     9.0650    25.7460 ca         1 QRF      -0.106000
      9 C13        -18.3960     6.8030    25.7600 ca         1 QRF      -0.002000
     10 C15        -21.3000     4.8620    32.2920 ca         1 QRF       0.306000
     11 C17        -20.1450     5.1900    34.4240 c6         1 QRF       0.178800
     12 C20        -21.0180     7.1100    33.2060 c6         1 QRF       0.178800
     13 C21        -19.2820     8.1300    36.1900 c          1 QRF       0.541600
     14 C22        -19.0060     9.5050    35.7190 cc         1 QRF       0.073500
     15 C24        -18.4020    11.4220    34.7280 cd         1 QRF      -0.198000
     16 O1         -18.6720     7.6960    37.1740 o          1 QRF      -0.579100
     17 O2         -18.6410    10.3960    36.6930 os         1 QRF      -0.211000
     18 C25        -18.2910    11.5530    36.0750 cc         1 QRF       0.149900
     19 C23        -18.8680    10.0940    34.4950 cd         1 QRF      -0.142000
     20 C18        -20.2820     5.9500    35.7360 c6         1 QRF       0.095000
     21 C19        -21.1510     7.8520    34.5270 c6         1 QRF       0.095000
     22 N2         -21.1020     5.6680    33.4190 nh         1 QRF      -0.789400
     23 C16        -21.4610     3.4720    32.4380 ca         1 QRF      -0.141000
     24 C          -21.6910     2.6930    31.3200 ca         1 QRF       0.158000
     25 CL         -21.9030     0.9610    31.5360 cl         1 QRF      -0.215000
     26 C14        -21.3830     5.3990    30.9990 ca         1 QRF      -0.150000
     27 C2         -21.6200     4.5950    29.8880 ca         1 QRF      -0.032300
     28 C1         -21.7760     3.2210    30.0390 ca         1 QRF      -0.126000
     29 C3         -21.6620     5.2070    28.5160 c3         1 QRF      -0.110100
     30 O          -19.2420     5.3750    28.5030 o          1 QRF      -0.563100
     31 N          -20.3270     5.4540    26.5120 ns         1 QRF      -0.174000
     32 C12        -18.6840     7.9070    26.5960 ca         1 QRF      -0.086000
     33 C11        -17.8670     9.0100    26.5840 ca         1 QRF      -0.093000
     34 C9         -16.4380     8.0160    24.9150 ca         1 QRF      -0.084000
     35 H1         -19.4410     3.7340    24.7480 h4         1 QRF       0.021100
     36 H2         -16.1630     5.8260    23.3620 h4         1 QRF       0.022100
     37 H3         -16.0990     9.9440    25.7600 ha         1 QRF       0.118000
     38 H4         -20.3110     4.1360    34.6240 h1         1 QRF       0.051200
     39 H5         -19.1190     5.3060    34.0480 h1         1 QRF       0.051200
     40 H6         -20.0710     7.3890    32.7200 h1         1 QRF       0.051200
     41 H7         -21.8360     7.4250    32.5610 h1         1 QRF       0.051200
     42 H8         -18.1800    12.1740    33.9890 ha         1 QRF       0.146000
     43 H9         -17.9980    12.3630    36.7210 h4         1 QRF       0.058100
     44 H10        -19.0500     9.6330    33.5390 ha         1 QRF       0.142000
     45 H11        -21.2560     5.7440    36.1900 h1         1 QRF       0.067200
     46 H12        -19.5030     5.6450    36.4270 h1         1 QRF       0.067200
     47 H13        -21.0560     8.9190    34.3710 h1         1 QRF       0.067200
     48 H14        -22.1440     7.6570    34.9470 h1         1 QRF       0.067200
     49 H15        -21.4380     3.0060    33.4100 ha         1 QRF       0.133000
     50 H16        -21.2450     6.4570    30.8370 ha         1 QRF       0.116000
     51 H17        -21.9570     2.5810    29.1870 ha         1 QRF       0.129000
     52 H18        -22.0690     6.2210    28.5670 hc         1 QRF       0.065700
     53 H19        -22.3170     4.6340    27.8580 hc         1 QRF       0.065700
     54 H20        -21.2040     5.2700    26.0470 hn         1 QRF       0.155000
     55 H21        -19.5510     7.8790    27.2390 ha         1 QRF       0.119000
     56 H22        -18.0960     9.8520    27.2250 ha         1 QRF       0.115000
     57 H23        -15.5770     8.0500    24.2580 ha         1 QRF       0.118000
@<TRIPOS>BOND
     1     1     5 ar  
     2     1     6 ar  
     3     2    13 1   
     4     2    20 1   
     5     2    21 1   
     6     3    29 1   
     7     3    30 2   
     8     3    31 1   
     9     4     5 ar  
    10     4     9 ar  
    11     4    31 1   
    12     5    35 1   
    13     6     7 ar  
    14     6    36 1   
    15     7     9 ar  
    16     7    34 ar  
    17     8    33 ar  
    18     8    34 ar  
    19     8    37 1   
    20     9    32 ar  
    21    10    22 1   
    22    10    23 ar  
    23    10    26 ar  
    24    11    20 1   
    25    11    22 1   
    26    11    38 1   
    27    11    39 1   
    28    12    21 1   
    29    12    22 1   
    30    12    40 1   
    31    12    41 1   
    32    13    14 1   
    33    13    16 2   
    34    14    17 1   
    35    14    19 2   
    36    15    18 2   
    37    15    19 1   
    38    15    42 1   
    39    17    18 1   
    40    18    43 1   
    41    19    44 1   
    42    20    45 1   
    43    20    46 1   
    44    21    47 1   
    45    21    48 1   
    46    23    24 ar  
    47    23    49 1   
    48    24    25 1   
    49    24    28 ar  
    50    26    27 ar  
    51    26    50 1   
    52    27    28 ar  
    53    27    29 1   
    54    28    51 1   
    55    29    52 1   
    56    29    53 1   
    57    31    54 1   
    58    32    33 ar  
    59    32    55 1   
    60    33    56 1   
    61    34    57 1   
@<TRIPOS>SUBSTRUCTURE
     1 QRF         1 TEMP              0 ****  ****    0 ROOT
