@<TRIPOS>MOLECULE
QRG
   36    35     1     0     0
SMALL
No Charge or Current Charge


@<TRIPOS>ATOM
      1 CAO         19.2860    44.1520    46.4060 c          1 QRG       0.598100
      2 OAC         19.0890    45.2600    46.8850 o          1 QRG      -0.647100
      3 CAB         19.3910    42.8950    47.2650 c3         1 QRG      -0.173100
      4 NAL         19.4090    43.9330    45.0530 ns         1 QRG      -0.443900
      5 CAT         19.3710    44.9790    44.0070 c3         1 QRG       0.046700
      6 CAR         18.4310    44.5350    42.8440 c          1 QRG       0.599100
      7 OAF         18.0130    43.3880    42.7180 o          1 QRG      -0.633100
      8 CAK         20.8020    45.3230    43.5000 c3         1 QRG      -0.231400
      9 CAP         21.6790    45.8870    44.6230 c          1 QRG       0.715000
     10 OAG         22.3830    45.1150    45.2550 o          1 QRG      -0.748000
     11 OAD         21.6430    47.0910    44.8250 o          1 QRG      -0.748000
     12 N           18.0960    45.5340    41.9500 ns         1 QRG      -0.471900
     13 CA          17.1970    45.3780    40.7820 c3         1 QRG      -0.026300
     14 C           17.4960    46.4750    39.7100 c          1 QRG       0.716000
     15 O           17.6810    46.1160    38.5550 o          1 QRG      -0.729500
     16 CB          15.7080    45.3710    41.2130 c3         1 QRG      -0.072400
     17 CG          14.7310    45.1190    40.0430 c3         1 QRG       0.109600
     18 SD          12.9760    45.0180    40.6430 ss         1 QRG      -0.542000
     19 CE          12.6280    46.8090    40.9710 c3         1 QRG       0.061900
     20 OXT         17.6240    47.6340    40.0790 o          1 QRG      -0.729500
     21 HAB         19.2770    43.1010    48.3360 hc         1 QRG       0.039367
     22 HABA        18.6570    42.1590    46.9160 hc         1 QRG       0.039367
     23 HABB        20.3410    42.3930    47.0500 hc         1 QRG       0.039367
     24 HNAL        19.5260    42.9700    44.7600 hn         1 QRG       0.316500
     25 HAT         18.9240    45.8880    44.4300 h1         1 QRG       0.080700
     26 HAK         21.2280    44.3870    43.1180 hc         1 QRG       0.054200
     27 HAKA        20.6680    46.0900    42.7300 hc         1 QRG       0.054200
     28 HN          18.4940    46.4510    42.1200 hn         1 QRG       0.297500
     29 HA          17.4230    44.4080    40.3180 h1         1 QRG       0.048700
     30 HB          15.5550    44.5920    41.9700 hc         1 QRG       0.032200
     31 HBA         15.4690    46.3290    41.6900 hc         1 QRG       0.032200
     32 HG          14.8150    45.9190    39.2950 h1         1 QRG       0.081200
     33 HGA         14.9910    44.1690    39.5560 h1         1 QRG       0.081200
     34 HE          11.5810    46.9320    41.2800 h1         1 QRG       0.050700
     35 HEA         13.2790    47.1820    41.7720 h1         1 QRG       0.050700
     36 HEB         12.8020    47.3980    40.0610 h1         1 QRG       0.050700
@<TRIPOS>BOND
     1     1     2 2   
     2     1     3 1   
     3     1     4 1   
     4     3    21 1   
     5     3    22 1   
     6     3    23 1   
     7     4     5 1   
     8     4    24 1   
     9     5     6 1   
    10     5     8 1   
    11     5    25 1   
    12     6     7 2   
    13     6    12 1   
    14     8     9 1   
    15     8    26 1   
    16     8    27 1   
    17     9    10 1   
    18     9    11 1   
    19    12    13 1   
    20    12    28 1   
    21    13    14 1   
    22    13    16 1   
    23    13    29 1   
    24    14    15 1   
    25    14    20 1   
    26    16    17 1   
    27    16    30 1   
    28    16    31 1   
    29    17    18 1   
    30    17    32 1   
    31    17    33 1   
    32    18    19 1   
    33    19    34 1   
    34    19    35 1   
    35    19    36 1   
@<TRIPOS>SUBSTRUCTURE
     1 QRG         1 TEMP              0 ****  ****    0 ROOT
