@<TRIPOS>MOLECULE
QRG
   36    35     1     0     0
SMALL
bcc


@<TRIPOS>ATOM
      1 CAO         19.3910    43.2090    45.8270 c          1 QRG       0.665100
      2 OAC         18.1730    43.1710    45.9550 o          1 QRG      -0.647100
      3 CAB         20.3000    42.2480    46.5520 c3         1 QRG      -0.173100
      4 NAL         20.0020    44.1120    45.0470 ns         1 QRG      -0.510900
      5 CAT         19.2710    45.0690    44.2600 c3         1 QRG       0.046700
      6 CAR         18.4610    44.3720    43.1680 c          1 QRG       0.666100
      7 OAF         18.8200    43.3220    42.6560 o          1 QRG      -0.633100
      8 CAK         20.2420    46.0610    43.6270 c3         1 QRG      -0.231400
      9 CAP         20.9370    47.0040    44.6390 c          1 QRG       0.925600
     10 OAG         22.0540    47.4340    44.2970 o          1 QRG      -0.853300
     11 OAD         20.3070    47.2780    45.6770 o          1 QRG      -0.853300
     12 N           17.3530    45.0310    42.8020 ns         1 QRG      -0.538900
     13 CA          16.6090    44.6910    41.6080 c3         1 QRG      -0.026300
     14 C           17.4630    44.8090    40.3160 c          1 QRG       0.926600
     15 O           17.1510    44.0270    39.3970 o          1 QRG      -0.834800
     16 CB          15.3940    45.6230    41.5350 c3         1 QRG      -0.072400
     17 CG          14.4090    45.2620    40.4350 c3         1 QRG       0.061700
     18 SD          12.8880    46.2530    40.4840 ss         1 QRG      -0.446200
     19 CE          13.5020    47.8550    39.9150 c3         1 QRG       0.014000
     20 OXT         18.3350    45.6950    40.2980 o          1 QRG      -0.834800
     21 HAB         20.1390    42.3360    47.6260 hc         1 QRG       0.039367
     22 HABA        20.0480    41.2260    46.2690 hc         1 QRG       0.039367
     23 HABB        21.3570    42.4100    46.3490 hc         1 QRG       0.039367
     24 HNAL        21.0020    44.0620    44.9310 hn         1 QRG       0.316500
     25 HAT         18.5930    45.6250    44.9130 h1         1 QRG       0.080700
     26 HAK         20.9860    45.5240    43.0310 hc         1 QRG       0.054200
     27 HAKA        19.6890    46.6840    42.9160 hc         1 QRG       0.054200
     28 HN          17.1690    45.9230    43.2330 hn         1 QRG       0.297500
     29 HA          16.2480    43.6620    41.6990 h1         1 QRG       0.048700
     30 HB          14.8670    45.5890    42.4940 hc         1 QRG       0.032200
     31 HBA         15.7440    46.6510    41.4040 hc         1 QRG       0.032200
     32 HG          14.8510    45.3540    39.4430 h1         1 QRG       0.081200
     33 HGA         14.0810    44.2270    40.5450 h1         1 QRG       0.081200
     34 HE          12.6440    48.5180    39.8240 h1         1 QRG       0.050700
     35 HEA         14.2040    48.2970    40.6200 h1         1 QRG       0.050700
     36 HEB         13.9770    47.7660    38.9390 h1         1 QRG       0.050700
@<TRIPOS>BOND
     1     1     2 2   
     2     1     3 1   
     3     1     4 1   
     4     3    21 1   
     5     3    22 1   
     6     3    23 1   
     7     4     5 1   
     8     4    24 1   
     9     5     6 1   
    10     5     8 1   
    11     5    25 1   
    12     6     7 2   
    13     6    12 1   
    14     8     9 1   
    15     8    26 1   
    16     8    27 1   
    17     9    10 1   
    18     9    11 1   
    19    12    13 1   
    20    12    28 1   
    21    13    14 1   
    22    13    16 1   
    23    13    29 1   
    24    14    15 1   
    25    14    20 1   
    26    16    17 1   
    27    16    30 1   
    28    16    31 1   
    29    17    18 1   
    30    17    32 1   
    31    17    33 1   
    32    18    19 1   
    33    19    34 1   
    34    19    35 1   
    35    19    36 1   
@<TRIPOS>SUBSTRUCTURE
     1 QRG         1 TEMP              0 ****  ****    0 ROOT
