@<TRIPOS>MOLECULE
QRI
   45    47     1     0     0
SMALL
abcg2


@<TRIPOS>ATOM
      1 C01        -53.1420   -29.4070    10.0950 c3         1 QRI       0.115300
      2 C03        -51.6350   -29.1960     8.1800 c          1 QRI       0.658100
      3 C05        -49.7640   -29.0430     6.5220 ca         1 QRI      -0.004000
      4 C06        -50.4780   -29.3560     5.3590 ca         1 QRI      -0.173500
      5 C07        -49.8230   -29.3950     4.1380 ca         1 QRI      -0.037500
      6 C08        -48.4570   -29.1390     4.0240 ca         1 QRI      -0.155600
      7 C09        -47.8190   -29.2290     2.6750 c          1 QRI       0.606700
      8 C11        -45.7180   -29.5540     1.4320 c5         1 QRI       0.165000
      9 C12        -44.3080   -30.1410     1.7470 c5         1 QRI      -0.204700
     10 C13        -44.2310   -31.0740     2.9710 c          1 QRI       0.718000
     11 C16        -43.3730   -28.9110     1.8410 c5         1 QRI      -0.013100
     12 C17        -44.0660   -27.8910     0.9810 ca         1 QRI      -0.091300
     13 C18        -43.5610   -26.7040     0.4610 ca         1 QRI       0.116100
     14 C20        -44.3830   -25.8960    -0.3260 ca         1 QRI      -0.208000
     15 C21        -45.7000   -26.2740    -0.5780 ca         1 QRI      -0.102000
     16 C22        -46.2180   -27.4560    -0.0530 ca         1 QRI      -0.112000
     17 C23        -45.3860   -28.2520     0.7240 ca         1 QRI      -0.062300
     18 C25        -47.7530   -28.8150     5.1890 ca         1 QRI      -0.037500
     19 C26        -48.3920   -28.7640     6.4130 ca         1 QRI      -0.173500
     20 N02        -51.8270   -29.1950     9.5220 ns         1 QRI      -0.536900
     21 N04        -50.3180   -29.0000     7.7990 ns         1 QRI      -0.162000
     22 N10        -46.4780   -29.3260     2.6580 ns         1 QRI      -0.481900
     23 O14        -43.8960   -32.2640     2.7740 o          1 QRI      -0.726000
     24 O15        -44.5100   -30.5610     4.0950 o          1 QRI      -0.726000
     25 O19        -42.2620   -26.3800     0.7430 oh         1 QRI      -0.540100
     26 O24        -48.5010   -29.2230     1.6410 o          1 QRI      -0.666100
     27 O27        -52.5610   -29.3480     7.3830 o          1 QRI      -0.629100
     28 H012       -53.0530   -29.3490    11.1770 h1         1 QRI       0.037033
     29 H011       -53.8440   -28.6430     9.7570 h1         1 QRI       0.037033
     30 H013       -53.5440   -30.3870     9.8250 h1         1 QRI       0.037033
     31 H061       -51.5320   -29.5700     5.4200 ha         1 QRI       0.122500
     32 H071       -50.3810   -29.6420     3.2440 ha         1 QRI       0.136000
     33 H111       -46.2930   -30.2270     0.7950 h1         1 QRI       0.066700
     34 H121       -44.0190   -30.7180     0.8690 hc         1 QRI       0.051700
     35 H162       -43.2950   -28.5610     2.8740 hc         1 QRI       0.060200
     36 H161       -42.3640   -29.1420     1.4990 hc         1 QRI       0.060200
     37 H201       -43.9870   -24.9760    -0.7410 ha         1 QRI       0.093000
     38 H211       -46.3220   -25.6370    -1.1950 ha         1 QRI       0.097000
     39 H221       -47.2420   -27.7470    -0.2420 ha         1 QRI       0.133000
     40 H251       -46.6980   -28.5800     5.1510 ha         1 QRI       0.136000
     41 H261       -47.8310   -28.5050     7.3030 ha         1 QRI       0.122500
     42 H021       -51.0370   -29.1550    10.1440 hn         1 QRI       0.309500
     43 H041       -49.6580   -28.8160     8.5400 hn         1 QRI       0.139000
     44 H101       -45.9590   -29.5420     3.5080 hn         1 QRI       0.378500
     45 H191       -42.0340   -25.5410     0.3200 ho         1 QRI       0.443000
@<TRIPOS>BOND
     1     1    20 1   
     2     1    28 1   
     3     1    29 1   
     4     1    30 1   
     5     2    20 1   
     6     2    21 1   
     7     2    27 2   
     8     3     4 ar  
     9     3    19 ar  
    10     3    21 1   
    11     4     5 ar  
    12     4    31 1   
    13     5     6 ar  
    14     5    32 1   
    15     6     7 1   
    16     6    18 ar  
    17     7    22 1   
    18     7    26 2   
    19     8     9 1   
    20     8    17 1   
    21     8    22 1   
    22     8    33 1   
    23     9    10 1   
    24     9    11 1   
    25     9    34 1   
    26    10    23 1   
    27    10    24 1   
    28    11    12 1   
    29    11    35 1   
    30    11    36 1   
    31    12    13 ar  
    32    12    17 ar  
    33    13    14 ar  
    34    13    25 1   
    35    14    15 ar  
    36    14    37 1   
    37    15    16 ar  
    38    15    38 1   
    39    16    17 ar  
    40    16    39 1   
    41    18    19 ar  
    42    18    40 1   
    43    19    41 1   
    44    20    42 1   
    45    21    43 1   
    46    22    44 1   
    47    25    45 1   
@<TRIPOS>SUBSTRUCTURE
     1 QRI         1 TEMP              0 ****  ****    0 ROOT
