@<TRIPOS>MOLECULE
QRI
   45    47     1     0     0
SMALL
No Charge or Current Charge


@<TRIPOS>ATOM
      1 C01        -53.1210   -29.0610    10.2550 c3         1 QRI       0.115300
      2 C03        -51.7220   -29.1550     8.1750 c          1 QRI       0.658100
      3 C05        -49.7970   -29.2460     6.4760 ca         1 QRI      -0.004000
      4 C06        -50.5280   -29.2740     5.2710 ca         1 QRI      -0.173500
      5 C07        -49.8630   -29.3260     4.0330 ca         1 QRI      -0.037500
      6 C08        -48.4520   -29.3550     3.9660 ca         1 QRI      -0.155600
      7 C09        -47.7750   -29.4100     2.6110 c          1 QRI       0.606700
      8 C11        -45.6810   -29.5990     1.3500 c5         1 QRI       0.165000
      9 C12        -44.2070   -30.0690     1.7200 c5         1 QRI      -0.204700
     10 C13        -44.1030   -31.0430     2.9270 c          1 QRI       0.718000
     11 C16        -43.3770   -28.7470     1.9670 c5         1 QRI      -0.013100
     12 C17        -44.1040   -27.8020     1.0420 ca         1 QRI      -0.091300
     13 C18        -43.6370   -26.5720     0.5460 ca         1 QRI       0.116100
     14 C20        -44.4630   -25.8200    -0.3080 ca         1 QRI      -0.208000
     15 C21        -45.7430   -26.2980    -0.6560 ca         1 QRI      -0.102000
     16 C22        -46.1990   -27.5290    -0.1480 ca         1 QRI      -0.112000
     17 C23        -45.3630   -28.2700     0.7050 ca         1 QRI      -0.062300
     18 C25        -47.7230   -29.3250     5.1780 ca         1 QRI      -0.037500
     19 C26        -48.3940   -29.2720     6.4130 ca         1 QRI      -0.173500
     20 N02        -51.8430   -29.1080     9.5430 ns         1 QRI      -0.536900
     21 N04        -50.3990   -29.1930     7.7630 ns         1 QRI      -0.162000
     22 N10        -46.3990   -29.4810     2.6180 ns         1 QRI      -0.481900
     23 O14        -43.6840   -32.1720     2.7240 o          1 QRI      -0.726000
     24 O15        -44.3940   -30.6550     4.0510 o          1 QRI      -0.726000
     25 O19        -42.4000   -26.1060     0.8830 oh         1 QRI      -0.540100
     26 O24        -48.4190   -29.3940     1.5680 o          1 QRI      -0.666100
     27 O27        -52.6980   -29.1610     7.4380 o          1 QRI      -0.629100
     28 H012       -52.9380   -29.0290    11.3370 h1         1 QRI       0.037033
     29 H011       -53.6780   -28.1630     9.9570 h1         1 QRI       0.037033
     30 H013       -53.7120   -29.9540    10.0140 h1         1 QRI       0.037033
     31 H061       -51.6120   -29.2550     5.2670 ha         1 QRI       0.122500
     32 H071       -50.4550   -29.3470     3.1200 ha         1 QRI       0.136000
     33 H111       -46.1640   -30.2970     0.6520 h1         1 QRI       0.066700
     34 H121       -43.8060   -30.5880     0.8420 hc         1 QRI       0.051700
     35 H162       -43.4320   -28.3990     3.0040 hc         1 QRI       0.060200
     36 H161       -42.3180   -28.8710     1.7140 hc         1 QRI       0.060200
     37 H201       -44.1210   -24.8660    -0.7050 ha         1 QRI       0.093000
     38 H211       -46.3810   -25.7140    -1.3170 ha         1 QRI       0.097000
     39 H221       -47.1870   -27.9010    -0.4110 ha         1 QRI       0.133000
     40 H251       -46.6360   -29.3380     5.1890 ha         1 QRI       0.136000
     41 H261       -47.8110   -29.2500     7.3310 ha         1 QRI       0.122500
     42 H021       -50.9870   -29.1060    10.0840 hn         1 QRI       0.309500
     43 H041       -49.7290   -29.1800     8.5200 hn         1 QRI       0.139000
     44 H101       -45.9320   -29.5880     3.5120 hn         1 QRI       0.378500
     45 H191       -42.2670   -25.2430     0.4380 ho         1 QRI       0.443000
@<TRIPOS>BOND
     1     1    20 1   
     2     1    28 1   
     3     1    29 1   
     4     1    30 1   
     5     2    20 1   
     6     2    21 1   
     7     2    27 2   
     8     3     4 ar  
     9     3    19 ar  
    10     3    21 1   
    11     4     5 ar  
    12     4    31 1   
    13     5     6 ar  
    14     5    32 1   
    15     6     7 1   
    16     6    18 ar  
    17     7    22 1   
    18     7    26 2   
    19     8     9 1   
    20     8    17 1   
    21     8    22 1   
    22     8    33 1   
    23     9    10 1   
    24     9    11 1   
    25     9    34 1   
    26    10    23 1   
    27    10    24 1   
    28    11    12 1   
    29    11    35 1   
    30    11    36 1   
    31    12    13 ar  
    32    12    17 ar  
    33    13    14 ar  
    34    13    25 1   
    35    14    15 ar  
    36    14    37 1   
    37    15    16 ar  
    38    15    38 1   
    39    16    17 ar  
    40    16    39 1   
    41    18    19 ar  
    42    18    40 1   
    43    19    41 1   
    44    20    42 1   
    45    21    43 1   
    46    22    44 1   
    47    25    45 1   
@<TRIPOS>SUBSTRUCTURE
     1 QRI         1 TEMP              0 ****  ****    0 ROOT
