@<TRIPOS>MOLECULE
QRL
   23    22     1     0     0
SMALL
No Charge or Current Charge


@<TRIPOS>ATOM
      1 CAA          5.0610    -0.1980    -0.2970 c3         1 QRL      -0.089100
      2 CAB          3.6760     0.4770    -0.3270 c3         1 QRL      -0.074400
      3 CAC          2.5480    -0.4340     0.2030 c3         1 QRL      -0.077400
      4 CAD          1.1600     0.2430     0.1720 c3         1 QRL      -0.067400
      5 CAE          0.0310    -0.6720     0.7050 c3         1 QRL      -0.168400
      6 CAF         -1.3290     0.0290     0.6490 c          1 QRL       0.613700
      7 OAG         -1.7270     0.7760     1.5320 o          1 QRL      -0.508100
      8 SAH         -2.2640    -0.2940    -0.8780 ss         1 QRL      -0.391600
      9 CAI         -3.7630     0.7490    -0.5730 c3         1 QRL       0.051900
     10 HAA          5.3340    -0.4780     0.7270 hc         1 QRL       0.032033
     11 HAAA         5.0660    -1.1020    -0.9170 hc         1 QRL       0.032033
     12 HAAB         5.8280     0.4860    -0.6820 hc         1 QRL       0.032033
     13 HAB          3.7140     1.3960     0.2720 hc         1 QRL       0.039200
     14 HABA         3.4480     0.7770    -1.3580 hc         1 QRL       0.039200
     15 HAC          2.5150    -1.3520    -0.3970 hc         1 QRL       0.037700
     16 HACA         2.7800    -0.7330     1.2330 hc         1 QRL       0.037700
     17 HAD          1.1930     1.1620     0.7720 hc         1 QRL       0.052200
     18 HADA         0.9270     0.5430    -0.8580 hc         1 QRL       0.052200
     19 HAE         -0.0020    -1.5630     0.0670 hc         1 QRL       0.073700
     20 HAEA         0.2510    -0.9470     1.7430 hc         1 QRL       0.073700
     21 HAI         -4.4520     0.6660    -1.4230 h1         1 QRL       0.070033
     22 HAIA        -4.2760     0.4110     0.3370 h1         1 QRL       0.070033
     23 HAIB        -3.4700     1.7990    -0.4520 h1         1 QRL       0.070033
@<TRIPOS>BOND
     1     1     2 1   
     2     1    10 1   
     3     1    11 1   
     4     1    12 1   
     5     2     3 1   
     6     2    13 1   
     7     2    14 1   
     8     3     4 1   
     9     3    15 1   
    10     3    16 1   
    11     4     5 1   
    12     4    17 1   
    13     4    18 1   
    14     5     6 1   
    15     5    19 1   
    16     5    20 1   
    17     6     7 2   
    18     6     8 1   
    19     8     9 1   
    20     9    21 1   
    21     9    22 1   
    22     9    23 1   
@<TRIPOS>SUBSTRUCTURE
     1 QRL         1 TEMP              0 ****  ****    0 ROOT
