@<TRIPOS>MOLECULE
QRL
   23    22     1     0     0
SMALL
bcc


@<TRIPOS>ATOM
      1 CAA          5.0950    -0.3630     0.0110 c3         1 QRL      -0.089100
      2 CAB          3.8210     0.4710     0.0040 c3         1 QRL      -0.074400
      3 CAC          2.5610    -0.3850     0.0200 c3         1 QRL      -0.077400
      4 CAD          1.2810     0.4420     0.0210 c3         1 QRL      -0.067400
      5 CAE          0.0430    -0.4420     0.0340 c3         1 QRL      -0.168400
      6 CAF         -1.2580     0.3190     0.0350 c          1 QRL       0.613700
      7 OAG         -1.3540     1.5160     0.1150 o          1 QRL      -0.508100
      8 SAH         -2.6760    -0.7400    -0.0870 ss         1 QRL      -0.343700
      9 CAI         -4.0190     0.4630    -0.0330 c3         1 QRL       0.004000
     10 HAA          5.1450    -0.9950     0.9000 hc         1 QRL       0.032033
     11 HAAA         5.1410    -1.0180    -0.8610 hc         1 QRL       0.032033
     12 HAAB         5.9880     0.2630     0.0010 hc         1 QRL       0.032033
     13 HAB          3.8150     1.1400     0.8700 hc         1 QRL       0.039200
     14 HABA         3.8090     1.1170    -0.8790 hc         1 QRL       0.039200
     15 HAC          2.5660    -1.0520    -0.8500 hc         1 QRL       0.037700
     16 HACA         2.5760    -1.0360     0.9010 hc         1 QRL       0.037700
     17 HAD          1.2760     1.1030     0.8920 hc         1 QRL       0.052200
     18 HADA         1.2660     1.0900    -0.8610 hc         1 QRL       0.052200
     19 HAE          0.0440    -1.1180    -0.8280 hc         1 QRL       0.073700
     20 HAEA         0.0470    -1.0940     0.9140 hc         1 QRL       0.073700
     21 HAI         -4.9440    -0.1070    -0.0920 h1         1 QRL       0.070033
     22 HAIA        -4.0070     1.0220     0.8990 h1         1 QRL       0.070033
     23 HAIB        -3.9670     1.1450    -0.8770 h1         1 QRL       0.070033
@<TRIPOS>BOND
     1     1     2 1   
     2     1    10 1   
     3     1    11 1   
     4     1    12 1   
     5     2     3 1   
     6     2    13 1   
     7     2    14 1   
     8     3     4 1   
     9     3    15 1   
    10     3    16 1   
    11     4     5 1   
    12     4    17 1   
    13     4    18 1   
    14     5     6 1   
    15     5    19 1   
    16     5    20 1   
    17     6     7 2   
    18     6     8 1   
    19     8     9 1   
    20     9    21 1   
    21     9    22 1   
    22     9    23 1   
@<TRIPOS>SUBSTRUCTURE
     1 QRL         1 TEMP              0 ****  ****    0 ROOT
