@<TRIPOS>MOLECULE
QRM
   18    18     1     0     0
SMALL
No Charge or Current Charge


@<TRIPOS>ATOM
      1 C1         -11.9650    81.2950    10.0390 c          1 QRM       0.707200
      2 C2         -12.1050    80.8420     8.5960 ce         1 QRM      -0.118400
      3 C3         -12.8540    79.5190     8.3080 c6         1 QRM      -0.042200
      4 C4         -12.3610    78.8270     7.0080 c6         1 QRM      -0.011200
      5 C5         -12.1150    79.8300     5.8900 c2         1 QRM      -0.353200
      6 C6         -11.7490    81.0930     6.1600 cf         1 QRM       0.134000
      7 C7         -11.6260    81.5550     7.5260 cf         1 QRM      -0.255000
      8 N10        -11.4740    82.0000     5.2010 nv         1 QRM      -0.927000
      9 O1         -12.4580    80.6150    10.9280 o          1 QRM      -0.723000
     10 O9         -11.3680    82.3380    10.2690 o          1 QRM      -0.723000
     11 H1         -13.9260    79.7380     8.2160 hc         1 QRM       0.051700
     12 H2         -13.0880    78.0690     6.6860 hc         1 QRM       0.018200
     13 H3         -11.1240    82.5070     7.7030 ha         1 QRM       0.189000
     14 H4         -11.2240    82.9580     5.4300 hn         1 QRM       0.418500
     15 H5         -11.5470    81.7630     4.2140 hn         1 QRM       0.418500
     16 H7         -12.7540    78.8130     9.1430 hc         1 QRM       0.051700
     17 H8         -11.4230    78.2930     7.2140 hc         1 QRM       0.018200
     18 H9         -12.2100    79.4780     4.8640 ha         1 QRM       0.146000
@<TRIPOS>BOND
     1     1     2 1   
     2     1     9 1   
     3     1    10 1   
     4     2     3 1   
     5     2     7 2   
     6     3     4 1   
     7     3    11 1   
     8     3    16 1   
     9     4     5 1   
    10     4    12 1   
    11     4    17 1   
    12     5     6 2   
    13     5    18 1   
    14     6     7 1   
    15     6     8 1   
    16     7    13 1   
    17     8    14 1   
    18     8    15 1   
@<TRIPOS>SUBSTRUCTURE
     1 QRM         1 TEMP              0 ****  ****    0 ROOT
