@<TRIPOS>MOLECULE
QRM
   18    18     1     0     0
SMALL
abcg2


@<TRIPOS>ATOM
      1 C1         -11.9620    81.2910    10.0170 c          1 QRM       0.707200
      2 C2         -12.0950    80.7990     8.5820 ce         1 QRM      -0.118400
      3 C3         -12.8310    79.5210     8.2910 c6         1 QRM      -0.042200
      4 C4         -12.3230    78.8520     7.0190 c6         1 QRM      -0.011200
      5 C5         -12.1660    79.8360     5.8960 c2         1 QRM      -0.353200
      6 C6         -11.8340    81.1120     6.1610 cf         1 QRM       0.134000
      7 C7         -11.6520    81.5320     7.5540 cf         1 QRM      -0.255000
      8 N10        -11.6870    82.1060     5.1980 nv         1 QRM      -0.927000
      9 O1         -12.5570    80.6160    10.8820 o          1 QRM      -0.723000
     10 O9         -11.2900    82.3230    10.2100 o          1 QRM      -0.723000
     11 H1         -13.9000    79.7530     8.1810 hc         1 QRM       0.051700
     12 H2         -13.0050    78.0490     6.7320 hc         1 QRM       0.018200
     13 H3         -11.1610    82.4810     7.7430 ha         1 QRM       0.189000
     14 H4         -11.0060    82.8120     5.4320 hn         1 QRM       0.418500
     15 H5         -11.5250    81.7590     4.2650 hn         1 QRM       0.418500
     16 H7         -12.7600    78.8370     9.1350 hc         1 QRM       0.051700
     17 H8         -11.3610    78.3620     7.2270 hc         1 QRM       0.018200
     18 H9         -12.2550    79.4920     4.8710 ha         1 QRM       0.146000
@<TRIPOS>BOND
     1     1     2 1   
     2     1     9 1   
     3     1    10 1   
     4     2     3 1   
     5     2     7 2   
     6     3     4 1   
     7     3    11 1   
     8     3    16 1   
     9     4     5 1   
    10     4    12 1   
    11     4    17 1   
    12     5     6 2   
    13     5    18 1   
    14     6     7 1   
    15     6     8 1   
    16     7    13 1   
    17     8    14 1   
    18     8    15 1   
@<TRIPOS>SUBSTRUCTURE
     1 QRM         1 TEMP              0 ****  ****    0 ROOT
