@<TRIPOS>MOLECULE
QRN
   35    37     1     0     0
SMALL
No Charge or Current Charge


@<TRIPOS>ATOM
      1 C7          93.2930    17.3010    25.0260 cc         1 QRN       0.413200
      2 C8          91.7070    15.9390    25.7090 ca         1 QRN       0.094400
      3 C9          92.4000    15.0750    24.8840 ca         1 QRN      -0.177000
      4 C1          89.9970    19.9060    22.0840 ca         1 QRN       0.112100
      5 C5          94.0630    19.1580    23.4520 c3         1 QRN      -0.021100
      6 C6          94.0940    18.5680    24.8800 c3         1 QRN      -0.100700
      7 C4          92.6440    19.4230    22.9630 ca         1 QRN      -0.079300
      8 C3          91.9250    20.5290    23.4490 ca         1 QRN      -0.099000
      9 C2          90.6110    20.7740    23.0160 ca         1 QRN      -0.164000
     10 N           92.2080    17.2310    25.8110 nd         1 QRN      -0.526100
     11 C           90.7230    18.7920    21.5940 ca         1 QRN       0.111100
     12 O           90.1590    17.9300    20.6890 oh         1 QRN      -0.516100
     13 C10         91.9980    13.7440    24.6940 ca         1 QRN      -0.076000
     14 C11         90.8510    13.2850    25.3700 ca         1 QRN      -0.100000
     15 C12         90.1330    14.1570    26.2160 ca         1 QRN      -0.112000
     16 C13         90.5620    15.4900    26.3880 ca         1 QRN      -0.052000
     17 C14         92.0370    18.5570    22.0340 ca         1 QRN      -0.169000
     18 C15         87.8970    21.2180    22.0820 c3         1 QRN       0.145900
     19 S           93.7930    15.8400    24.1420 ss         1 QRN      -0.013200
     20 H3          94.5840    18.4760    22.7680 hc         1 QRN       0.051700
     21 H13         94.6410    20.0900    23.4420 hc         1 QRN       0.051700
     22 H4          95.1340    18.3700    25.1630 hc         1 QRN       0.068700
     23 H14         93.7230    19.3220    25.5850 hc         1 QRN       0.068700
     24 H2          92.3860    21.2020    24.1700 ha         1 QRN       0.111000
     25 H1          90.0870    21.6380    23.4140 ha         1 QRN       0.118000
     26 H           90.8130    17.2320    20.4740 ho         1 QRN       0.458000
     27 H5          92.5580    13.0800    24.0400 ha         1 QRN       0.123000
     28 H6          90.5180    12.2580    25.2390 ha         1 QRN       0.115000
     29 H7          89.2480    13.8010    26.7370 ha         1 QRN       0.118000
     30 H8          90.0120    16.1650    27.0390 ha         1 QRN       0.133000
     31 H9          92.5900    17.6990    21.6580 ha         1 QRN       0.116000
     32 H11         86.9120    21.1890    21.6010 h1         1 QRN       0.038367
     33 H10         87.7460    21.1740    23.1680 h1         1 QRN       0.038367
     34 H12         88.3720    22.1750    21.8290 h1         1 QRN       0.038367
     35 O1          88.7030    20.1140    21.6330 os         1 QRN      -0.320100
@<TRIPOS>BOND
     1     1     6 1   
     2     1    10 2   
     3     1    19 1   
     4     2     3 ar  
     5     2    10 1   
     6     2    16 ar  
     7     3    13 ar  
     8     3    19 1   
     9     4     9 ar  
    10     4    11 ar  
    11     4    35 1   
    12     5     6 1   
    13     5     7 1   
    14     5    20 1   
    15     5    21 1   
    16     6    22 1   
    17     6    23 1   
    18     7     8 ar  
    19     7    17 ar  
    20     8     9 ar  
    21     8    24 1   
    22     9    25 1   
    23    11    12 1   
    24    11    17 ar  
    25    12    26 1   
    26    13    14 ar  
    27    13    27 1   
    28    14    15 ar  
    29    14    28 1   
    30    15    16 ar  
    31    15    29 1   
    32    16    30 1   
    33    17    31 1   
    34    18    32 1   
    35    18    33 1   
    36    18    34 1   
    37    18    35 1   
@<TRIPOS>SUBSTRUCTURE
     1 QRN         1 TEMP              0 ****  ****    0 ROOT
