@<TRIPOS>MOLECULE
QRN
   35    37     1     0     0
SMALL
bcc


@<TRIPOS>ATOM
      1 C7          93.3080    17.3510    25.0440 cc         1 QRN       0.413200
      2 C8          91.6960    15.9610    25.6060 ca         1 QRN       0.094400
      3 C9          92.4550    15.0700    24.8300 ca         1 QRN      -0.050100
      4 C1          89.9810    19.8760    22.2040 ca         1 QRN       0.112100
      5 C5          94.0430    19.1700    23.4700 c3         1 QRN      -0.021100
      6 C6          94.0870    18.6120    24.9030 c3         1 QRN      -0.100700
      7 C4          92.6400    19.4350    23.0020 ca         1 QRN      -0.079300
      8 C3          91.9710    20.5910    23.3680 ca         1 QRN      -0.117000
      9 C2          90.6540    20.8120    22.9740 ca         1 QRN      -0.182000
     10 N           92.2100    17.2340    25.7010 nd         1 QRN      -0.526100
     11 C           90.6510    18.7000    21.8270 ca         1 QRN       0.111100
     12 O           89.9580    17.8170    21.0760 oh         1 QRN      -0.477100
     13 C10         92.0640    13.7500    24.6400 ca         1 QRN      -0.094000
     14 C11         90.8920    13.3290    25.2440 ca         1 QRN      -0.118000
     15 C12         90.1250    14.2060    26.0190 ca         1 QRN      -0.130000
     16 C13         90.5180    15.5180    26.2060 ca         1 QRN      -0.070000
     17 C14         91.9600    18.4950    22.2250 ca         1 QRN      -0.187000
     18 C15         88.0040    21.1710    22.0890 c3         1 QRN       0.122700
     19 S           93.8500    15.8980    24.2260 ss         1 QRN      -0.140100
     20 H3          94.5460    18.4770    22.7930 hc         1 QRN       0.051700
     21 H13         94.6290    20.0900    23.4570 hc         1 QRN       0.051700
     22 H4          95.1280    18.4400    25.1880 hc         1 QRN       0.068700
     23 H14         93.6720    19.3410    25.6000 hc         1 QRN       0.068700
     24 H2          92.4720    21.3390    23.9700 ha         1 QRN       0.129000
     25 H1          90.1650    21.7280    23.2790 ha         1 QRN       0.136000
     26 H           90.5090    17.0520    20.8800 ho         1 QRN       0.419000
     27 H5          92.6540    13.0710    24.0400 ha         1 QRN       0.141000
     28 H6          90.5650    12.3060    25.1130 ha         1 QRN       0.133000
     29 H7          89.2130    13.8510    26.4780 ha         1 QRN       0.136000
     30 H8          89.9280    16.2000    26.8060 ha         1 QRN       0.151000
     31 H9          92.4650    17.5820    21.9230 ha         1 QRN       0.134000
     32 H11         87.0200    21.0770    21.6370 h1         1 QRN       0.038367
     33 H10         87.8840    21.2940    23.1690 h1         1 QRN       0.038367
     34 H12         88.4930    22.0630    21.6880 h1         1 QRN       0.038367
     35 O1          88.7100    19.9920    21.7670 os         1 QRN      -0.296900
@<TRIPOS>BOND
     1     1     6 1   
     2     1    10 2   
     3     1    19 1   
     4     2     3 ar  
     5     2    10 1   
     6     2    16 ar  
     7     3    13 ar  
     8     3    19 1   
     9     4     9 ar  
    10     4    11 ar  
    11     4    35 1   
    12     5     6 1   
    13     5     7 1   
    14     5    20 1   
    15     5    21 1   
    16     6    22 1   
    17     6    23 1   
    18     7     8 ar  
    19     7    17 ar  
    20     8     9 ar  
    21     8    24 1   
    22     9    25 1   
    23    11    12 1   
    24    11    17 ar  
    25    12    26 1   
    26    13    14 ar  
    27    13    27 1   
    28    14    15 ar  
    29    14    28 1   
    30    15    16 ar  
    31    15    29 1   
    32    16    30 1   
    33    17    31 1   
    34    18    32 1   
    35    18    33 1   
    36    18    34 1   
    37    18    35 1   
@<TRIPOS>SUBSTRUCTURE
     1 QRN         1 TEMP              0 ****  ****    0 ROOT
