@<TRIPOS>MOLECULE
QRO
   30    31     1     0     0
SMALL
bcc


@<TRIPOS>ATOM
      1 OAA          0.6710     2.3540    -0.0590 o          1 QRO      -0.793300
      2 CAN          1.9020     2.2410    -0.0120 c          1 QRO       0.928800
      3 OAD          2.7600     3.1410    -0.0450 o          1 QRO      -0.793300
      4 CAR          2.4880     0.8180     0.0760 cc         1 QRO       0.031400
      5 NAL          3.8390     0.8100    -0.1420 ns         1 QRO      -0.447100
      6 CAT          4.6280    -0.2940    -0.1580 c          1 QRO       0.815500
      7 OAB          5.8280    -0.2680    -0.3570 o          1 QRO      -0.682500
      8 NAM          3.9350    -1.4540     0.0710 ns         1 QRO      -0.606500
      9 CAU          2.5790    -1.5790     0.3150 c          1 QRO       0.722700
     10 OAC          2.0990    -2.6860     0.4940 o          1 QRO      -0.663500
     11 CAS          1.8210    -0.3350     0.3320 cd         1 QRO      -0.299400
     12 CAK          0.3500    -0.4500     0.5930 c3         1 QRO       0.020800
     13 CAJ         -0.4500    -0.6750    -0.6980 c3         1 QRO      -0.033100
     14 CAO         -1.9310    -0.6390    -0.4510 ca         1 QRO      -0.042300
     15 CAI         -2.5560     0.5850    -0.2080 ca         1 QRO      -0.134000
     16 CAQ         -3.9090     0.6300     0.0420 ca         1 QRO       0.088900
     17 FAF         -4.5180     1.8000     0.2700 f          1 QRO      -0.136900
     18 CAP         -4.6650    -0.5320     0.0570 ca         1 QRO       0.068900
     19 FAE         -5.9790    -0.4510     0.2990 f          1 QRO      -0.145900
     20 CAH         -4.0660    -1.7500    -0.1770 ca         1 QRO      -0.158000
     21 CAG         -2.6990    -1.7970    -0.4310 ca         1 QRO      -0.128000
     22 H2           4.4760    -2.3090     0.0520 hn         1 QRO       0.319500
     23 H4           0.1720    -1.2860     1.2720 hc         1 QRO       0.056700
     24 H5          -0.0120     0.4470     1.0880 hc         1 QRO       0.056700
     25 H6          -0.1810     0.1010    -1.4160 hc         1 QRO       0.057200
     26 H7          -0.1700    -1.6330    -1.1390 hc         1 QRO       0.057200
     27 H8          -1.9810     1.5040    -0.2160 ha         1 QRO       0.190000
     28 H9          -4.6620    -2.6520    -0.1640 ha         1 QRO       0.137000
     29 H10         -2.2330    -2.7550    -0.6210 ha         1 QRO       0.137000
     30 H11          4.2620     1.7200    -0.2860 hn         1 QRO       0.375500
@<TRIPOS>BOND
     1     1     2 1   
     2     2     3 1   
     3     2     4 1   
     4     4     5 1   
     5     4    11 2   
     6     5     6 1   
     7     5    30 1   
     8     6     7 2   
     9     6     8 1   
    10     8     9 1   
    11     8    22 1   
    12     9    10 2   
    13     9    11 1   
    14    11    12 1   
    15    12    13 1   
    16    12    23 1   
    17    12    24 1   
    18    13    14 1   
    19    13    25 1   
    20    13    26 1   
    21    14    15 ar  
    22    14    21 ar  
    23    15    16 ar  
    24    15    27 1   
    25    16    17 1   
    26    16    18 ar  
    27    18    19 1   
    28    18    20 ar  
    29    20    21 ar  
    30    20    28 1   
    31    21    29 1   
@<TRIPOS>SUBSTRUCTURE
     1 QRO         1 TEMP              0 ****  ****    0 ROOT
