@<TRIPOS>MOLECULE
QRO
   30    31     1     0     0
SMALL
No Charge or Current Charge


@<TRIPOS>ATOM
      1 OAA          0.8170     2.5100     0.0980 o          1 QRO      -0.688000
      2 CAN          2.0130     2.2850    -0.0310 c          1 QRO       0.718200
      3 OAD          2.8140     3.1870    -0.2530 o          1 QRO      -0.688000
      4 CAR          2.5610     0.8680     0.0620 cc         1 QRO       0.031400
      5 NAL          3.9350     0.7490    -0.1410 ns         1 QRO      -0.493600
      6 CAT          4.6560    -0.3980    -0.1340 c          1 QRO       0.606000
      7 OAB          5.8560    -0.4210    -0.3220 o          1 QRO      -0.607000
      8 NAM          3.9230    -1.5100     0.0990 ns         1 QRO      -0.472500
      9 CAU          2.5840    -1.6070     0.3240 c          1 QRO       0.580200
     10 OAC          2.0710    -2.6990     0.5120 o          1 QRO      -0.588000
     11 CAS          1.8480    -0.3060     0.3140 cd         1 QRO      -0.299400
     12 CAK          0.3520    -0.4110     0.5820 c3         1 QRO       0.020800
     13 CAJ         -0.4730    -0.5220    -0.7180 c3         1 QRO      -0.033100
     14 CAO         -1.9700    -0.5620    -0.4470 ca         1 QRO      -0.042300
     15 CAI         -2.6800     0.6360    -0.2240 ca         1 QRO      -0.116000
     16 CAQ         -4.0600     0.6010     0.0300 ca         1 QRO       0.124000
     17 FAF         -4.7290     1.7580     0.2430 f          1 QRO      -0.172000
     18 CAP         -4.7410    -0.6310     0.0640 ca         1 QRO       0.104000
     19 FAE         -6.0710    -0.6730     0.3080 f          1 QRO      -0.181000
     20 CAH         -4.0400    -1.8280    -0.1560 ca         1 QRO      -0.140000
     21 CAG         -2.6560    -1.7930    -0.4110 ca         1 QRO      -0.110000
     22 H2           4.4330    -2.3780     0.1050 hn         1 QRO       0.319500
     23 H4           0.1220    -1.2800     1.2110 hc         1 QRO       0.056700
     24 H5          -0.0020     0.4410     1.1720 hc         1 QRO       0.056700
     25 H6          -0.2350     0.3280    -1.3700 hc         1 QRO       0.057200
     26 H7          -0.1590    -1.4190    -1.2650 hc         1 QRO       0.057200
     27 H8          -2.1620     1.5920    -0.2450 ha         1 QRO       0.172000
     28 H9          -4.5660    -2.7790    -0.1280 ha         1 QRO       0.119000
     29 H10         -2.1170    -2.7230    -0.5770 ha         1 QRO       0.119000
     30 H11          4.4750     1.5910    -0.3220 hn         1 QRO       0.489000
@<TRIPOS>BOND
     1     1     2 1   
     2     2     3 1   
     3     2     4 1   
     4     4     5 1   
     5     4    11 2   
     6     5     6 1   
     7     5    30 1   
     8     6     7 2   
     9     6     8 1   
    10     8     9 1   
    11     8    22 1   
    12     9    10 2   
    13     9    11 1   
    14    11    12 1   
    15    12    13 1   
    16    12    23 1   
    17    12    24 1   
    18    13    14 1   
    19    13    25 1   
    20    13    26 1   
    21    14    15 ar  
    22    14    21 ar  
    23    15    16 ar  
    24    15    27 1   
    25    16    17 1   
    26    16    18 ar  
    27    18    19 1   
    28    18    20 ar  
    29    20    21 ar  
    30    20    28 1   
    31    21    29 1   
@<TRIPOS>SUBSTRUCTURE
     1 QRO         1 TEMP              0 ****  ****    0 ROOT
