@<TRIPOS>MOLECULE
QRP
   38    41     1     0     0
SMALL
bcc


@<TRIPOS>ATOM
      1 C            2.0950    -1.3410    -0.4270 c          1 QRP       0.703500
      2 N            0.6310     0.4760     0.2400 ns         1 QRP      -0.568900
      3 O            2.2360    -2.2710    -1.2070 o          1 QRP      -0.628500
      4 CA           0.7450    -0.9730     0.1820 c6         1 QRP       0.039700
      5 CB          -0.4130    -1.5720    -0.6160 c3         1 QRP      -0.000200
      6 CG          -1.7510    -1.2320    -0.0430 cc         1 QRP      -0.161400
      7 OAA          1.5000     2.4830     0.8190 o          1 QRP      -0.625500
      8 CAH          4.8040     0.9500    -0.4880 c5         1 QRP      -0.098400
      9 CAI          4.1940     1.3440     0.8560 c5         1 QRP      -0.075400
     10 CAJ          4.4150    -0.5150    -0.6320 c5         1 QRP       0.102000
     11 CAN          1.6210     1.2800     0.6580 c          1 QRP       0.695500
     12 CAT          2.9050     0.5230     0.9470 c5         1 QRP       0.021700
     13 NAU          3.0910    -0.5440    -0.0310 n          1 QRP      -0.475800
     14 CD1         -2.4040    -1.8950     0.9590 cd         1 QRP      -0.099100
     15 CD2         -2.5950    -0.1290    -0.4030 ca         1 QRP      -0.103800
     16 NE1         -3.5860    -1.2740     1.2420 na         1 QRP      -0.169400
     17 CE2         -3.7370    -0.1920     0.4280 ca         1 QRP      -0.047200
     18 CE3         -2.4990     0.9010    -1.3490 ca         1 QRP      -0.087000
     19 CH2         -4.6470     1.7430    -0.6010 ca         1 QRP      -0.107000
     20 CZ2         -4.7720     0.7380     0.3390 ca         1 QRP      -0.144000
     21 CZ3         -3.5220     1.8250    -1.4380 ca         1 QRP      -0.151000
     22 HN          -0.2920     0.8800     0.1590 hn         1 QRP       0.338500
     23 HA           0.7110    -1.3910     1.1990 h1         1 QRP       0.058700
     24 HB          -0.3480    -1.2350    -1.6540 hc         1 QRP       0.071700
     25 HBA         -0.2790    -2.6530    -0.6310 hc         1 QRP       0.071700
     26 HAH          4.3590     1.5320    -1.2980 hc         1 QRP       0.059700
     27 HAHA         5.8820     1.0980    -0.5200 hc         1 QRP       0.059700
     28 HAI          4.8620     1.0600     1.6700 hc         1 QRP       0.067700
     29 HAIA         4.0020     2.4110     0.9480 hc         1 QRP       0.067700
     30 HAJ          4.3700    -0.8560    -1.6650 h1         1 QRP       0.060200
     31 HAJA         5.1040    -1.1670    -0.0870 h1         1 QRP       0.060200
     32 HAT          2.7930     0.1010     1.9550 h1         1 QRP       0.070700
     33 HD1         -2.1080    -2.7830     1.4960 h4         1 QRP       0.163000
     34 HE3         -1.6400     0.9710    -2.0060 ha         1 QRP       0.136000
     35 HH2         -5.4340     2.4800    -0.6960 ha         1 QRP       0.130000
     36 HZ2         -5.6410     0.6750     0.9810 ha         1 QRP       0.132000
     37 HZ3         -3.4600     2.6240    -2.1640 ha         1 QRP       0.132000
     38 HNE1        -4.2530    -1.5920     1.9260 hn         1 QRP       0.301700
@<TRIPOS>BOND
     1     1     3 2   
     2     1     4 1   
     3     1    13 1   
     4     2     4 1   
     5     2    11 1   
     6     2    22 1   
     7     4     5 1   
     8     4    23 1   
     9     5     6 1   
    10     5    24 1   
    11     5    25 1   
    12     6    14 2   
    13     6    15 1   
    14     7    11 2   
    15     8     9 1   
    16     8    10 1   
    17     8    26 1   
    18     8    27 1   
    19     9    12 1   
    20     9    28 1   
    21     9    29 1   
    22    10    13 1   
    23    10    30 1   
    24    10    31 1   
    25    11    12 1   
    26    12    13 1   
    27    12    32 1   
    28    14    16 1   
    29    14    33 1   
    30    15    17 ar  
    31    15    18 ar  
    32    16    17 1   
    33    16    38 1   
    34    17    20 ar  
    35    18    21 ar  
    36    18    34 1   
    37    19    20 ar  
    38    19    21 ar  
    39    19    35 1   
    40    20    36 1   
    41    21    37 1   
@<TRIPOS>SUBSTRUCTURE
     1 QRP         1 TEMP              0 ****  ****    0 ROOT
