@<TRIPOS>MOLECULE
QRP
   38    41     1     0     0
SMALL
No Charge or Current Charge


@<TRIPOS>ATOM
      1 C            2.1200    -1.4780    -0.2540 c          1 QRP       0.561000
      2 N            0.5510     0.3590     0.5070 ns         1 QRP      -0.501900
      3 O            2.3240    -2.4600    -0.9580 o          1 QRP      -0.553000
      4 CA           0.7220    -1.1130     0.3320 c6         1 QRP       0.039700
      5 CB          -0.4310    -1.7330    -0.5090 c3         1 QRP      -0.000200
      6 CG          -1.8090    -1.3570    -0.0250 cc         1 QRP      -0.161400
      7 OAA          1.2530     2.4080     1.1930 o          1 QRP      -0.550000
      8 CAH          4.5730     1.0890    -0.7550 c5         1 QRP      -0.098400
      9 CAI          4.1260     1.5110     0.6750 c5         1 QRP      -0.075400
     10 CAJ          4.3970    -0.4500    -0.7240 c5         1 QRP       0.102000
     11 CAN          1.5190     1.2400     0.9540 c          1 QRP       0.553000
     12 CAT          2.9300     0.5530     0.9900 c5         1 QRP       0.021700
     13 NAU          3.1110    -0.5160    -0.0210 n          1 QRP      -0.408800
     14 CD1         -2.6130    -2.0660     0.8620 cd         1 QRP      -0.149100
     15 CD2         -2.5440    -0.1680    -0.3590 ca         1 QRP      -0.103800
     16 NE1         -3.8150    -1.3520     1.0900 na         1 QRP      -0.219700
     17 CE2         -3.7250    -0.2030     0.3270 ca         1 QRP      -0.047200
     18 CE3         -2.2180     0.8920    -1.2190 ca         1 QRP      -0.069000
     19 CH2         -4.3700     1.9130    -0.6390 ca         1 QRP      -0.089000
     20 CZ2         -4.6690     0.8270     0.2120 ca         1 QRP      -0.126000
     21 CZ3         -3.1480     1.9440    -1.3520 ca         1 QRP      -0.133000
     22 HN          -0.3870     0.7370     0.4250 hn         1 QRP       0.338500
     23 HA           0.6910    -1.5610     1.3350 h1         1 QRP       0.058700
     24 HB          -0.3250    -1.4260    -1.5570 hc         1 QRP       0.071700
     25 HBA         -0.3390    -2.8260    -0.5100 hc         1 QRP       0.071700
     26 HAH          3.9260     1.5400    -1.5170 hc         1 QRP       0.059700
     27 HAHA         5.6020     1.3880    -0.9840 hc         1 QRP       0.059700
     28 HAI          4.9400     1.3480     1.3920 hc         1 QRP       0.067700
     29 HAIA         3.8640     2.5740     0.7360 hc         1 QRP       0.067700
     30 HAJ          4.3570    -0.8850    -1.7320 h1         1 QRP       0.060200
     31 HAJA         5.1900    -0.9480    -0.1480 h1         1 QRP       0.060200
     32 HAT          3.0340     0.1330     1.9990 h1         1 QRP       0.070700
     33 HD1         -2.4140    -3.0160     1.3530 h4         1 QRP       0.213000
     34 HE3         -1.2800     0.9050    -1.7690 ha         1 QRP       0.118000
     35 HH2         -5.0820     2.7280    -0.7480 ha         1 QRP       0.112000
     36 HZ2         -5.6070     0.7920     0.7610 ha         1 QRP       0.114000
     37 HZ3         -2.9260     2.7820    -2.0090 ha         1 QRP       0.114000
     38 HNE1        -4.5860    -1.6260     1.6930 hn         1 QRP       0.352000
@<TRIPOS>BOND
     1     1     3 2   
     2     1     4 1   
     3     1    13 1   
     4     2     4 1   
     5     2    11 1   
     6     2    22 1   
     7     4     5 1   
     8     4    23 1   
     9     5     6 1   
    10     5    24 1   
    11     5    25 1   
    12     6    14 2   
    13     6    15 1   
    14     7    11 2   
    15     8     9 1   
    16     8    10 1   
    17     8    26 1   
    18     8    27 1   
    19     9    12 1   
    20     9    28 1   
    21     9    29 1   
    22    10    13 1   
    23    10    30 1   
    24    10    31 1   
    25    11    12 1   
    26    12    13 1   
    27    12    32 1   
    28    14    16 1   
    29    14    33 1   
    30    15    17 ar  
    31    15    18 ar  
    32    16    17 1   
    33    16    38 1   
    34    17    20 ar  
    35    18    21 ar  
    36    18    34 1   
    37    19    20 ar  
    38    19    21 ar  
    39    19    35 1   
    40    20    36 1   
    41    21    37 1   
@<TRIPOS>SUBSTRUCTURE
     1 QRP         1 TEMP              0 ****  ****    0 ROOT
