@<TRIPOS>MOLECULE
QRQ
   42    44     1     0     0
SMALL
No Charge or Current Charge


@<TRIPOS>ATOM
      1 C7          94.5000    17.6560    23.4770 c3         1 QRQ      -0.031100
      2 C8          94.0480    18.6210    22.3550 c3         1 QRQ      -0.099700
      3 C9          92.7840    19.3710    22.6850 cc         1 QRQ       0.410200
      4 C1          92.4540    14.4060    23.4980 ca         1 QRQ       0.159600
      5 C5          92.4140    16.9290    24.7260 ca         1 QRQ      -0.221500
      6 C6          93.4360    16.6180    23.8170 ca         1 QRQ      -0.013300
      7 C4          90.1900    17.7000    26.3860 c3         1 QRQ       0.144400
      8 C3          91.3850    16.0060    25.0180 ca         1 QRQ       0.159600
      9 C2          91.4090    14.7160    24.4030 ca         1 QRQ       0.024100
     10 N           91.6080    19.0740    22.1140 nd         1 QRQ      -0.541100
     11 C           93.4700    12.7390    21.9700 c3         1 QRQ       0.144400
     12 C10         90.6440    19.8730    22.7150 ca         1 QRQ       0.094400
     13 C11         91.0900    20.7460    23.6890 ca         1 QRQ      -0.177000
     14 C12         90.2150    21.5950    24.3830 ca         1 QRQ      -0.073000
     15 C13         88.8430    21.5500    24.0700 ca         1 QRQ      -0.101000
     16 C14         88.3750    20.6640    23.0770 ca         1 QRQ      -0.112000
     17 C15         89.2770    19.8210    22.3950 ca         1 QRQ      -0.056000
     18 C16         93.4530    15.3580    23.2050 ca         1 QRQ      -0.221500
     19 C17         89.3340    13.8210    25.5090 c3         1 QRQ       0.148900
     20 O2          90.4600    13.7140    24.6210 os         1 QRQ      -0.328100
     21 S           92.8240    20.6450    23.9280 ss         1 QRQ       0.009800
     22 H1          95.4280    17.1600    23.1660 hc         1 QRQ       0.055700
     23 H2          94.7580    18.2360    24.3720 hc         1 QRQ       0.055700
     24 H3          93.9060    18.0490    21.4300 hc         1 QRQ       0.068700
     25 H4          94.8510    19.3390    22.1540 hc         1 QRQ       0.068700
     26 H5          92.4270    17.9090    25.1900 ha         1 QRQ       0.121500
     27 H6          89.2870    17.7580    27.0070 h1         1 QRQ       0.041867
     28 H7          91.0450    18.0010    27.0050 h1         1 QRQ       0.041867
     29 H8          90.0810    18.4150    25.5600 h1         1 QRQ       0.041867
     30 H9          93.2780    11.7130    21.6320 h1         1 QRQ       0.041867
     31 H10         93.4760    13.3910    21.0870 h1         1 QRQ       0.041867
     32 H11         94.4640    12.7630    22.4340 h1         1 QRQ       0.041867
     33 H12         90.5870    22.2750    25.1470 ha         1 QRQ       0.124000
     34 H13         88.1450    22.1980    24.5940 ha         1 QRQ       0.116000
     35 H14         87.3140    20.6290    22.8360 ha         1 QRQ       0.117000
     36 H15         88.9200    19.1350    21.6320 ha         1 QRQ       0.129000
     37 H16         94.2500    15.1360    22.5010 ha         1 QRQ       0.121500
     38 H17         88.7600    12.8860    25.5020 h1         1 QRQ       0.032700
     39 H18         89.6630    14.0040    26.5400 h1         1 QRQ       0.032700
     40 H19         88.6610    14.6280    25.1940 h1         1 QRQ       0.032700
     41 O           92.4590    13.1520    22.9050 os         1 QRQ      -0.324100
     42 O1          90.3640    16.3620    25.8850 os         1 QRQ      -0.324100
@<TRIPOS>BOND
     1     1     2 1   
     2     1     6 1   
     3     1    22 1   
     4     1    23 1   
     5     2     3 1   
     6     2    24 1   
     7     2    25 1   
     8     3    10 2   
     9     3    21 1   
    10     4     9 ar  
    11     4    18 ar  
    12     4    41 1   
    13     5     6 ar  
    14     5     8 ar  
    15     5    26 1   
    16     6    18 ar  
    17     7    27 1   
    18     7    28 1   
    19     7    29 1   
    20     7    42 1   
    21     8     9 ar  
    22     8    42 1   
    23     9    20 1   
    24    10    12 1   
    25    11    30 1   
    26    11    31 1   
    27    11    32 1   
    28    11    41 1   
    29    12    13 ar  
    30    12    17 ar  
    31    13    14 ar  
    32    13    21 1   
    33    14    15 ar  
    34    14    33 1   
    35    15    16 ar  
    36    15    34 1   
    37    16    17 ar  
    38    16    35 1   
    39    17    36 1   
    40    18    37 1   
    41    19    20 1   
    42    19    38 1   
    43    19    39 1   
    44    19    40 1   
@<TRIPOS>SUBSTRUCTURE
     1 QRQ         1 TEMP              0 ****  ****    0 ROOT
