@<TRIPOS>MOLECULE
QRQ
   42    44     1     0     0
SMALL
bcc


@<TRIPOS>ATOM
      1 C7          94.4170    17.9430    24.1840 c3         1 QRQ      -0.031100
      2 C8          94.2120    18.6490    22.8410 c3         1 QRQ      -0.099700
      3 C9          92.8290    19.1750    22.6610 cc         1 QRQ       0.410200
      4 C1          91.9750    15.0660    23.7560 ca         1 QRQ       0.159600
      5 C5          92.9680    16.6840    25.7900 ca         1 QRQ      -0.239500
      6 C6          93.4040    16.8670    24.4830 ca         1 QRQ      -0.013300
      7 C4          92.0400    16.2150    28.3980 c3         1 QRQ       0.121200
      8 C3          92.0430    15.6860    26.0880 ca         1 QRQ       0.159600
      9 C2          91.5440    14.8690    25.0700 ca         1 QRQ       0.024100
     10 N           92.0660    18.9010    21.6650 nd         1 QRQ      -0.541100
     11 C           91.7700    14.4530    21.4780 c3         1 QRQ       0.121200
     12 C10         90.8420    19.5190    21.7800 ca         1 QRQ       0.094400
     13 C11         90.6810    20.3060    22.9320 ca         1 QRQ      -0.050100
     14 C12         89.5000    20.9920    23.1890 ca         1 QRQ      -0.091000
     15 C13         88.4710    20.8770    22.2710 ca         1 QRQ      -0.119000
     16 C14         88.6170    20.0930    21.1210 ca         1 QRQ      -0.130000
     17 C15         89.7930    19.4140    20.8670 ca         1 QRQ      -0.074000
     18 C16         92.9150    16.0530    23.4690 ca         1 QRQ      -0.239500
     19 C17         89.2900    14.3010    25.2790 c3         1 QRQ       0.125700
     20 O2          90.6470    13.8870    25.3560 os         1 QRQ      -0.304900
     21 S           92.1340    20.2370    23.8690 ss         1 QRQ      -0.117100
     22 H1          95.4240    17.5170    24.1850 hc         1 QRQ       0.055700
     23 H2          94.4090    18.6790    24.9910 hc         1 QRQ       0.055700
     24 H3          94.4190    17.9780    22.0080 hc         1 QRQ       0.068700
     25 H4          94.9280    19.4720    22.7670 hc         1 QRQ       0.068700
     26 H5          93.3510    17.3340    26.5660 ha         1 QRQ       0.139500
     27 H6          91.5340    15.8490    29.2880 h1         1 QRQ       0.041867
     28 H7          93.1180    16.1080    28.5360 h1         1 QRQ       0.041867
     29 H8          91.8050    17.2760    28.2730 h1         1 QRQ       0.041867
     30 H9          91.1910    13.7330    20.9040 h1         1 QRQ       0.041867
     31 H10         91.5190    15.4610    21.1370 h1         1 QRQ       0.041867
     32 H11         92.8320    14.2750    21.2910 h1         1 QRQ       0.041867
     33 H12         89.3850    21.5980    24.0790 ha         1 QRQ       0.142000
     34 H13         87.5400    21.4010    22.4470 ha         1 QRQ       0.134000
     35 H14         87.7950    20.0180    20.4210 ha         1 QRQ       0.135000
     36 H15         89.9100    18.8070    19.9790 ha         1 QRQ       0.147000
     37 H16         93.2540    16.2010    22.4530 ha         1 QRQ       0.139500
     38 H17         88.6750    13.4350    25.5190 h1         1 QRQ       0.032700
     39 H18         89.0680    15.0970    25.9930 h1         1 QRQ       0.032700
     40 H19         89.0290    14.6480    24.2760 h1         1 QRQ       0.032700
     41 O           91.4280    14.2530    22.8350 os         1 QRQ      -0.300900
     42 O1          91.5650    15.4350    27.3200 os         1 QRQ      -0.300900
@<TRIPOS>BOND
     1     1     2 1   
     2     1     6 1   
     3     1    22 1   
     4     1    23 1   
     5     2     3 1   
     6     2    24 1   
     7     2    25 1   
     8     3    10 2   
     9     3    21 1   
    10     4     9 ar  
    11     4    18 ar  
    12     4    41 1   
    13     5     6 ar  
    14     5     8 ar  
    15     5    26 1   
    16     6    18 ar  
    17     7    27 1   
    18     7    28 1   
    19     7    29 1   
    20     7    42 1   
    21     8     9 ar  
    22     8    42 1   
    23     9    20 1   
    24    10    12 1   
    25    11    30 1   
    26    11    31 1   
    27    11    32 1   
    28    11    41 1   
    29    12    13 ar  
    30    12    17 ar  
    31    13    14 ar  
    32    13    21 1   
    33    14    15 ar  
    34    14    33 1   
    35    15    16 ar  
    36    15    34 1   
    37    16    17 ar  
    38    16    35 1   
    39    17    36 1   
    40    18    37 1   
    41    19    20 1   
    42    19    38 1   
    43    19    39 1   
    44    19    40 1   
@<TRIPOS>SUBSTRUCTURE
     1 QRQ         1 TEMP              0 ****  ****    0 ROOT
