@<TRIPOS>MOLECULE
QRR
   45    47     1     0     0
SMALL
No Charge or Current Charge


@<TRIPOS>ATOM
      1 N1          -6.4070    -9.2900     4.9420 nb         1 QRR      -0.263000
      2 C7         -10.0660   -11.1890    10.2640 ca         1 QRR      -0.074000
      3 C8         -11.1900   -11.6640    10.9620 ca         1 QRR      -0.109000
      4 N2          -5.6160   -11.1810     8.6080 n          1 QRR      -0.367300
      5 C9         -11.4570   -13.0430    11.0110 ca         1 QRR      -0.098000
      6 C1          -5.1810    -9.4590     5.4590 ca         1 QRR       0.420900
      7 C5          -8.0340   -11.5750     8.8950 cc         1 QRR      -0.169400
      8 C6          -9.2000   -12.0890     9.6120 ca         1 QRR      -0.019800
      9 N3          -4.5240    -7.8530    12.8200 n8         1 QRR      -1.000200
     10 C4          -8.3060   -10.9490     7.7010 cd         1 QRR      -0.020200
     11 C3          -7.2140   -10.4140     6.9010 ca         1 QRR      -0.308800
     12 C2          -7.4310    -9.7720     5.6700 ca         1 QRR       0.207900
     13 N4          -4.8680   -10.0550     6.6210 nb         1 QRR      -0.309000
     14 C12         -6.6490   -11.7230     9.4150 c          1 QRR       0.576200
     15 C13         -4.2050   -11.2970     9.0810 c3         1 QRR       0.099000
     16 C14         -3.6440   -10.0000     9.7150 c3         1 QRR      -0.090400
     17 C15         -4.4030    -9.5340    10.9800 c3         1 QRR      -0.079400
     18 C16         -3.7870    -8.2700    11.6130 c3         1 QRR       0.150800
     19 C17         -5.8930   -10.5360     7.3530 ca         1 QRR       0.311900
     20 N           -4.1400    -8.9550     4.6980 nu         1 QRR      -0.915100
     21 C           -2.6990    -8.9860     5.0210 c3         1 QRR       0.230100
     22 C11         -9.4740   -13.4740     9.6630 ca         1 QRR       0.135000
     23 Cl          -8.4330   -14.6350     8.8370 cl         1 QRR      -0.217000
     24 C10        -10.5990   -13.9460    10.3600 ca         1 QRR      -0.108000
     25 H1          -9.8630   -10.1210    10.2320 ha         1 QRR       0.124000
     26 H2         -11.8530   -10.9630    11.4650 ha         1 QRR       0.120000
     27 H3         -12.3280   -13.4100    11.5510 ha         1 QRR       0.118000
     28 H4          -4.1190    -6.9770    13.1720 hn         1 QRR       0.391000
     29 H5          -5.4780    -7.5860    12.5510 hn         1 QRR       0.391000
     30 H7          -9.3340   -10.8640     7.3530 ha         1 QRR       0.194000
     31 H8          -8.4310    -9.6440     5.2600 h4         1 QRR       0.027100
     32 H9          -4.1110   -12.1140     9.8070 h1         1 QRR       0.075700
     33 H10         -3.5670   -11.5800     8.2340 h1         1 QRR       0.075700
     34 H11         -2.5920   -10.1710     9.9740 hc         1 QRR       0.048700
     35 H12         -3.6550    -9.1950     8.9710 hc         1 QRR       0.048700
     36 H13         -5.4500    -9.3310    10.7210 hc         1 QRR       0.052700
     37 H14         -4.4040   -10.3460    11.7190 hc         1 QRR       0.052700
     38 H15         -2.7420    -8.4680    11.8920 h1         1 QRR       0.025200
     39 H16         -3.8040    -7.4460    10.8870 h1         1 QRR       0.025200
     40 H17         -4.4190    -8.5080     3.8230 hn         1 QRR       0.514000
     41 H18         -2.1150    -8.5060     4.2240 h1         1 QRR       0.046033
     42 H19         -2.5030    -8.4540     5.9620 h1         1 QRR       0.046033
     43 H20         -2.3500   -10.0220     5.1280 h1         1 QRR       0.046033
     44 H21        -10.8070   -15.0120    10.3930 ha         1 QRR       0.128000
     45 O           -6.4170   -12.2740    10.4850 o          1 QRR      -0.532000
@<TRIPOS>BOND
     1     1     6 ar  
     2     1    12 ar  
     3     2     3 ar  
     4     2     8 ar  
     5     2    25 1   
     6     3     5 ar  
     7     3    26 1   
     8     4    14 1   
     9     4    15 1   
    10     4    19 1   
    11     5    24 ar  
    12     5    27 1   
    13     6    13 ar  
    14     6    20 1   
    15     7     8 1   
    16     7    10 2   
    17     7    14 1   
    18     8    22 ar  
    19     9    18 1   
    20     9    28 1   
    21     9    29 1   
    22    10    11 1   
    23    10    30 1   
    24    11    12 ar  
    25    11    19 ar  
    26    12    31 1   
    27    13    19 ar  
    28    14    45 2   
    29    15    16 1   
    30    15    32 1   
    31    15    33 1   
    32    16    17 1   
    33    16    34 1   
    34    16    35 1   
    35    17    18 1   
    36    17    36 1   
    37    17    37 1   
    38    18    38 1   
    39    18    39 1   
    40    20    21 1   
    41    20    40 1   
    42    21    41 1   
    43    21    42 1   
    44    21    43 1   
    45    22    23 1   
    46    22    24 ar  
    47    24    44 1   
@<TRIPOS>SUBSTRUCTURE
     1 QRR         1 TEMP              0 ****  ****    0 ROOT
