@<TRIPOS>MOLECULE
QRR
   45    47     1     0     0
SMALL
abcg2


@<TRIPOS>ATOM
      1 N1          -6.2260    -9.3710     4.9270 nb         1 QRR      -0.263000
      2 C7          -9.2670   -11.5950    10.9260 ca         1 QRR      -0.074000
      3 C8         -10.3150   -12.0110    11.7330 ca         1 QRR      -0.109000
      4 N2          -5.5640   -11.2150     8.5470 n          1 QRR      -0.367300
      5 C9         -11.1980   -12.9830    11.2740 ca         1 QRR      -0.098000
      6 C1          -4.9940    -9.5470     5.4840 ca         1 QRR       0.420900
      7 C5          -7.9580   -11.6180     8.8090 cc         1 QRR      -0.169400
      8 C6          -9.0690   -12.1250     9.6460 ca         1 QRR      -0.019800
      9 N3          -5.1320    -7.6830    12.4950 n8         1 QRR      -1.000200
     10 C4          -8.1780   -10.9990     7.6210 cd         1 QRR      -0.020200
     11 C3          -7.1060   -10.4910     6.8530 ca         1 QRR      -0.308800
     12 C2          -7.2430    -9.8430     5.6170 ca         1 QRR       0.207900
     13 N4          -4.7410   -10.1400     6.6580 nb         1 QRR      -0.309000
     14 C12         -6.5990   -11.7740     9.3160 c          1 QRR       0.576200
     15 C13         -4.1930   -11.2600     9.0870 c3         1 QRR       0.099000
     16 C14         -3.7710    -9.9290     9.7090 c3         1 QRR      -0.090400
     17 C15         -4.6620    -9.4630    10.8570 c3         1 QRR      -0.079400
     18 C16         -4.2490    -8.1010    11.3970 c3         1 QRR       0.150800
     19 C17         -5.7860   -10.6070     7.3380 ca         1 QRR       0.311900
     20 N           -3.9540    -9.0790     4.7790 nu         1 QRR      -0.915100
     21 C           -2.5750    -9.1580     5.2200 c3         1 QRR       0.230100
     22 C11         -9.9660   -13.1070     9.2160 ca         1 QRR       0.135000
     23 CL          -9.7720   -13.8710     7.6480 cl         1 QRR      -0.217000
     24 C10        -11.0230   -13.5360    10.0130 ca         1 QRR      -0.108000
     25 H1          -8.5800   -10.8380    11.2800 ha         1 QRR       0.124000
     26 H2         -10.4440   -11.5750    12.7150 ha         1 QRR       0.120000
     27 H3         -12.0200   -13.3170    11.8940 ha         1 QRR       0.118000
     28 H4          -4.8350    -6.7810    12.8510 hn         1 QRR       0.391000
     29 H5          -6.0720    -7.5440    12.1350 hn         1 QRR       0.391000
     30 H7          -9.1880   -10.8780     7.2470 ha         1 QRR       0.194000
     31 H8          -8.2350    -9.7140     5.1930 h4         1 QRR       0.027100
     32 H9          -4.1810   -12.0530     9.8270 h1         1 QRR       0.075700
     33 H10         -3.5260   -11.5230     8.2710 h1         1 QRR       0.075700
     34 H11         -2.7430   -10.0510    10.0640 hc         1 QRR       0.048700
     35 H12         -3.7470    -9.1660     8.9280 hc         1 QRR       0.048700
     36 H13         -5.7010    -9.3990    10.5150 hc         1 QRR       0.052700
     37 H14         -4.6430   -10.1940    11.6690 hc         1 QRR       0.052700
     38 H15         -3.2280    -8.1550    11.7870 h1         1 QRR       0.025200
     39 H16         -4.2340    -7.3790    10.5670 h1         1 QRR       0.025200
     40 H17         -4.1680    -8.6260     3.9060 hn         1 QRR       0.514000
     41 H18         -1.9500    -8.7020     4.4560 h1         1 QRR       0.046033
     42 H19         -2.4310    -8.6280     6.1630 h1         1 QRR       0.046033
     43 H20         -2.2660   -10.1960     5.3610 h1         1 QRR       0.046033
     44 H21        -11.6940   -14.2990     9.6450 ha         1 QRR       0.128000
     45 O           -6.3360   -12.3590    10.3660 o          1 QRR      -0.532000
@<TRIPOS>BOND
     1     1     6 ar  
     2     1    12 ar  
     3     2     3 ar  
     4     2     8 ar  
     5     2    25 1   
     6     3     5 ar  
     7     3    26 1   
     8     4    14 1   
     9     4    15 1   
    10     4    19 1   
    11     5    24 ar  
    12     5    27 1   
    13     6    13 ar  
    14     6    20 1   
    15     7     8 1   
    16     7    10 2   
    17     7    14 1   
    18     8    22 ar  
    19     9    18 1   
    20     9    28 1   
    21     9    29 1   
    22    10    11 1   
    23    10    30 1   
    24    11    12 ar  
    25    11    19 ar  
    26    12    31 1   
    27    13    19 ar  
    28    14    45 2   
    29    15    16 1   
    30    15    32 1   
    31    15    33 1   
    32    16    17 1   
    33    16    34 1   
    34    16    35 1   
    35    17    18 1   
    36    17    36 1   
    37    17    37 1   
    38    18    38 1   
    39    18    39 1   
    40    20    21 1   
    41    20    40 1   
    42    21    41 1   
    43    21    42 1   
    44    21    43 1   
    45    22    23 1   
    46    22    24 ar  
    47    24    44 1   
@<TRIPOS>SUBSTRUCTURE
     1 QRR         1 TEMP              0 ****  ****    0 ROOT
