@<TRIPOS>MOLECULE
QRS
   56    59     1     0     0
SMALL
abcg2


@<TRIPOS>ATOM
      1 N1         -22.3740     6.6010    28.2440 ns         1 QRS      -0.528900
      2 N3         -16.1900     5.4390    27.0860 nb         1 QRS      -0.636000
      3 C4         -21.6180     9.8300    27.4270 c5         1 QRS       0.159800
      4 C5         -21.9050     7.7420    28.8080 c          1 QRS       0.585100
      5 C6         -21.8870     5.2700    28.5810 c3         1 QRS       0.105700
      6 C7         -22.4380     4.3010    27.5140 c3         1 QRS      -0.104100
      7 C8         -20.3260     5.2510    28.4860 c          1 QRS       0.615100
      8 C10        -17.4860     5.2670    27.4510 ca         1 QRS       0.304900
      9 C13        -16.5030     8.2740    24.7560 ca         1 QRS      -0.077000
     10 C15        -18.8090     8.9460    24.6040 ca         1 QRS      -0.094000
     11 C17        -18.2250     7.0920    26.0470 ca         1 QRS      -0.036000
     12 C20        -23.6550     5.1400    31.9780 ca         1 QRS      -0.100000
     13 C21        -23.2700     3.8950    32.4510 ca         1 QRS       0.131000
     14 C22        -22.4350     3.0990    31.6680 ca         1 QRS       0.122000
     15 CL1        -21.9310     1.5210    32.2060 cl         1 QRS      -0.177000
     16 CL         -23.8430     3.3580    34.0020 cl         1 QRS      -0.177000
     17 C19        -23.2040     5.5910    30.7450 ca         1 QRS      -0.079000
     18 C23        -21.9880     3.5550    30.4360 ca         1 QRS      -0.063000
     19 C18        -22.3580     4.8130    29.9620 ca         1 QRS      -0.075300
     20 O          -20.9840     7.7290    29.6200 o          1 QRS      -0.565100
     21 C3         -22.5640     9.0210    28.3400 c5         1 QRS      -0.150700
     22 C2         -22.8830     9.9990    29.5060 c5         1 QRS      -0.061400
     23 C1         -22.0640    11.2530    29.1890 c5         1 QRS       0.153800
     24 N          -21.9340    11.2210    27.7330 n3         1 QRS      -0.716600
     25 C          -20.9560    12.1560    27.2070 c3         1 QRS       0.152100
     26 O1         -19.6220     4.6860    29.3040 o          1 QRS      -0.549100
     27 N2         -19.8540     5.8580    27.3630 ns         1 QRS      -0.137000
     28 C9         -18.5200     6.0500    26.9790 ca         1 QRS      -0.059000
     29 C16        -19.1860     7.9660    25.4880 ca         1 QRS      -0.114000
     30 C14        -17.4590     9.1050    24.2300 ca         1 QRS      -0.111000
     31 C12        -16.8630     7.2580    25.6700 ca         1 QRS      -0.079000
     32 C11        -15.8970     6.3930    26.2350 ca         1 QRS       0.334900
     33 H1         -23.1740     6.6620    27.6330 hn         1 QRS       0.319500
     34 H2         -21.7700     9.6180    26.3690 h1         1 QRS       0.046700
     35 H3         -20.5700     9.6000    27.6770 h1         1 QRS       0.046700
     36 H4         -23.5270     4.2810    27.5770 hc         1 QRS       0.055367
     37 H5         -22.1460     4.6200    26.5140 hc         1 QRS       0.055367
     38 H6         -22.0610     3.2950    27.6830 hc         1 QRS       0.055367
     39 H7         -17.6850     4.4710    28.1490 h4         1 QRS       0.051100
     40 H8         -15.4610     8.3820    24.4820 ha         1 QRS       0.120000
     41 H9         -19.5590     9.6110    24.1940 ha         1 QRS       0.113000
     42 H10        -24.3100     5.7570    32.5780 ha         1 QRS       0.132000
     43 H11        -23.5320     6.5610    30.4040 ha         1 QRS       0.117000
     44 H12        -21.3420     2.9140    29.8580 ha         1 QRS       0.141000
     45 H13        -23.4770     8.7820    27.7960 hc         1 QRS       0.060700
     46 H14        -23.9490    10.2220    29.5120 hc         1 QRS       0.059200
     47 H15        -22.6180     9.5770    30.4730 hc         1 QRS       0.059200
     48 H16        -21.0750    11.1960    29.6730 h1         1 QRS       0.047700
     49 H17        -22.5440    12.1780    29.5150 h1         1 QRS       0.047700
     50 H19        -21.2440    13.1770    27.4620 h1         1 QRS       0.034700
     51 H20        -19.9460    11.9700    27.6100 h1         1 QRS       0.034700
     52 H21        -20.9100    12.0730    26.1200 h1         1 QRS       0.034700
     53 H22        -20.5470     6.3230    26.7990 hn         1 QRS       0.152000
     54 H23        -20.2310     7.8870    25.7520 ha         1 QRS       0.103000
     55 H24        -17.1830     9.8840    23.5320 ha         1 QRS       0.119000
     56 H25        -14.8540     6.5130    25.9550 h4         1 QRS       0.022100
@<TRIPOS>BOND
     1     1     4 1   
     2     1     5 1   
     3     1    33 1   
     4     2     8 ar  
     5     2    32 ar  
     6     3    21 1   
     7     3    24 1   
     8     3    34 1   
     9     3    35 1   
    10     4    20 2   
    11     4    21 1   
    12     5     6 1   
    13     5     7 1   
    14     5    19 1   
    15     6    36 1   
    16     6    37 1   
    17     6    38 1   
    18     7    26 2   
    19     7    27 1   
    20     8    28 ar  
    21     8    39 1   
    22     9    30 ar  
    23     9    31 ar  
    24     9    40 1   
    25    10    29 ar  
    26    10    30 ar  
    27    10    41 1   
    28    11    28 ar  
    29    11    29 ar  
    30    11    31 ar  
    31    12    13 ar  
    32    12    17 ar  
    33    12    42 1   
    34    13    14 ar  
    35    13    16 1   
    36    14    15 1   
    37    14    18 ar  
    38    17    19 ar  
    39    17    43 1   
    40    18    19 ar  
    41    18    44 1   
    42    21    22 1   
    43    21    45 1   
    44    22    23 1   
    45    22    46 1   
    46    22    47 1   
    47    23    24 1   
    48    23    48 1   
    49    23    49 1   
    50    24    25 1   
    51    25    50 1   
    52    25    51 1   
    53    25    52 1   
    54    27    28 1   
    55    27    53 1   
    56    29    54 1   
    57    30    55 1   
    58    31    32 ar  
    59    32    56 1   
@<TRIPOS>SUBSTRUCTURE
     1 QRS         1 TEMP              0 ****  ****    0 ROOT
