@<TRIPOS>MOLECULE
QRS
   56    59     1     0     0
SMALL
No Charge or Current Charge


@<TRIPOS>ATOM
      1 N1         -22.3100     6.6000    28.2210 ns         1 QRS      -0.528900
      2 N3         -16.0310     5.6540    27.2240 nb         1 QRS      -0.636000
      3 C4         -21.4030     9.8870    27.4720 c5         1 QRS       0.159800
      4 C5         -21.7680     7.7520    28.7640 c          1 QRS       0.585100
      5 C6         -21.9060     5.2060    28.5600 c3         1 QRS       0.105700
      6 C7         -22.6290     4.2970    27.5340 c3         1 QRS      -0.104100
      7 C8         -20.3440     5.0160    28.3480 c          1 QRS       0.615100
      8 C10        -17.3150     5.4400    27.5930 ca         1 QRS       0.304900
      9 C13        -16.5080     8.2580    24.6410 ca         1 QRS      -0.077000
     10 C15        -18.8730     8.7650    24.3890 ca         1 QRS      -0.094000
     11 C17        -18.1590     7.0820    26.0130 ca         1 QRS      -0.036000
     12 C20        -23.5240     5.2470    32.1120 ca         1 QRS      -0.100000
     13 C21        -23.2490     3.9500    32.5650 ca         1 QRS       0.131000
     14 C22        -22.5520     3.0570    31.7300 ca         1 QRS       0.122000
     15 Cl1        -22.2030     1.4080    32.2530 cl         1 QRS      -0.177000
     16 Cl         -23.8000     3.4640    34.1700 cl         1 QRS      -0.177000
     17 C19        -23.0980     5.6610    30.8370 ca         1 QRS      -0.079000
     18 C23        -22.1280     3.4720    30.4570 ca         1 QRS      -0.063000
     19 C18        -22.3710     4.7880    29.9880 ca         1 QRS      -0.075300
     20 O          -20.8700     7.7450    29.5910 o          1 QRS      -0.565100
     21 C3         -22.4710     8.9880    28.1620 c5         1 QRS      -0.150700
     22 C2         -23.0690     9.8940    29.2940 c5         1 QRS      -0.061400
     23 C1         -22.1530    11.1420    29.2660 c5         1 QRS       0.153800
     24 N          -21.8770    11.2430    27.8180 n3         1 QRS      -0.716600
     25 C          -20.9750    12.3420    27.4190 c3         1 QRS       0.152100
     26 O1         -19.6860     4.1760    28.9520 o          1 QRS      -0.549100
     27 N2         -19.7670     5.8990    27.4390 ns         1 QRS      -0.137000
     28 C9         -18.4210     6.1210    27.0220 ca         1 QRS      -0.059000
     29 C16        -19.1870     7.8170    25.3780 ca         1 QRS      -0.114000
     30 C14        -17.5360     8.9870    24.0220 ca         1 QRS      -0.111000
     31 C12        -16.8180     7.3080    25.6340 ca         1 QRS      -0.079000
     32 C11        -15.7940     6.5730    26.2610 ca         1 QRS       0.334900
     33 H1         -23.0730     6.7270    27.5660 hn         1 QRS       0.319500
     34 H2         -21.3660     9.7230    26.3860 h1         1 QRS       0.046700
     35 H3         -20.3940     9.7090    27.8740 h1         1 QRS       0.046700
     36 H4         -23.7170     4.3610    27.6580 hc         1 QRS       0.055367
     37 H5         -22.3860     4.5960    26.5060 hc         1 QRS       0.055367
     38 H6         -22.3360     3.2470    27.6500 hc         1 QRS       0.055367
     39 H7         -17.4400     4.7000    28.3790 h4         1 QRS       0.051100
     40 H8         -15.4740     8.4320    24.3500 ha         1 QRS       0.120000
     41 H9         -19.6690     9.3280    23.9050 ha         1 QRS       0.113000
     42 H10        -24.0750     5.9350    32.7480 ha         1 QRS       0.132000
     43 H11        -23.3590     6.6680    30.5270 ha         1 QRS       0.117000
     44 H12        -21.6050     2.7510    29.8350 ha         1 QRS       0.141000
     45 H13        -23.2510     8.6930    27.4500 hc         1 QRS       0.060700
     46 H14        -24.1030    10.1720    29.0600 hc         1 QRS       0.059200
     47 H15        -23.0830     9.4150    30.2800 hc         1 QRS       0.059200
     48 H16        -21.2320    10.9780    29.8440 h1         1 QRS       0.047700
     49 H17        -22.6570    12.0330    29.6650 h1         1 QRS       0.047700
     50 H19        -21.4000    13.3130    27.7060 h1         1 QRS       0.034700
     51 H20        -19.9930    12.2390    27.9020 h1         1 QRS       0.034700
     52 H21        -20.8240    12.3440    26.3320 h1         1 QRS       0.034700
     53 H22        -20.4340     6.5240    27.0070 hn         1 QRS       0.152000
     54 H23        -20.2320     7.6640    25.6320 ha         1 QRS       0.103000
     55 H24        -17.2970     9.7210    23.2550 ha         1 QRS       0.119000
     56 H25        -14.7510     6.7250    25.9880 h4         1 QRS       0.022100
@<TRIPOS>BOND
     1     1     4 1   
     2     1     5 1   
     3     1    33 1   
     4     2     8 ar  
     5     2    32 ar  
     6     3    21 1   
     7     3    24 1   
     8     3    34 1   
     9     3    35 1   
    10     4    20 2   
    11     4    21 1   
    12     5     6 1   
    13     5     7 1   
    14     5    19 1   
    15     6    36 1   
    16     6    37 1   
    17     6    38 1   
    18     7    26 2   
    19     7    27 1   
    20     8    28 ar  
    21     8    39 1   
    22     9    30 ar  
    23     9    31 ar  
    24     9    40 1   
    25    10    29 ar  
    26    10    30 ar  
    27    10    41 1   
    28    11    28 ar  
    29    11    29 ar  
    30    11    31 ar  
    31    12    13 ar  
    32    12    17 ar  
    33    12    42 1   
    34    13    14 ar  
    35    13    16 1   
    36    14    15 1   
    37    14    18 ar  
    38    17    19 ar  
    39    17    43 1   
    40    18    19 ar  
    41    18    44 1   
    42    21    22 1   
    43    21    45 1   
    44    22    23 1   
    45    22    46 1   
    46    22    47 1   
    47    23    24 1   
    48    23    48 1   
    49    23    49 1   
    50    24    25 1   
    51    25    50 1   
    52    25    51 1   
    53    25    52 1   
    54    27    28 1   
    55    27    53 1   
    56    29    54 1   
    57    30    55 1   
    58    31    32 ar  
    59    32    56 1   
@<TRIPOS>SUBSTRUCTURE
     1 QRS         1 TEMP              0 ****  ****    0 ROOT
