@<TRIPOS>MOLECULE
QRU
   49    52     1     0     0
SMALL
No Charge or Current Charge


@<TRIPOS>ATOM
      1 C18        -49.8770   -29.2440     6.4810 ca         1 QRU      -0.005000
      2 C16        -49.9600   -29.3670     4.0410 ca         1 QRU      -0.037500
      3 C17        -50.6170   -29.3010     5.2820 ca         1 QRU      -0.172500
      4 C15        -48.5500   -29.3800     3.9630 ca         1 QRU      -0.154600
      5 C14        -47.8830   -29.4500     2.6030 c          1 QRU       0.605700
      6 C12        -45.7970   -29.6360     1.3300 c5         1 QRU       0.165000
      7 C11        -45.4990   -28.3140     0.6600 ca         1 QRU      -0.062300
      8 C10        -46.3500   -27.5970    -0.1980 ca         1 QRU      -0.112000
      9 C20        -51.7900   -29.1440     8.1930 c          1 QRU       0.660100
     10 C02        -44.1910   -31.0360     2.9180 c          1 QRU       0.718000
     11 C03        -44.3150   -30.0840     1.6950 c5         1 QRU      -0.204700
     12 C04        -43.4970   -28.7480     1.9140 c5         1 QRU      -0.013100
     13 C05        -44.2430   -27.8270     0.9790 ca         1 QRU      -0.091300
     14 C06        -43.7930   -26.6010     0.4590 ca         1 QRU       0.116100
     15 C08        -44.6340   -25.8720    -0.4010 ca         1 QRU      -0.207000
     16 C09        -45.9110   -26.3700    -0.7310 ca         1 QRU      -0.102000
     17 C22        -53.1460   -29.0340    10.2770 cx         1 QRU       0.065700
     18 C23        -53.1040   -29.2410    11.7700 cx         1 QRU      -0.135900
     19 C24        -53.6550   -30.3220    10.8730 cx         1 QRU      -0.135900
     20 C26        -48.4740   -29.2550     6.4070 ca         1 QRU      -0.172500
     21 C27        -47.8120   -29.3210     5.1690 ca         1 QRU      -0.037500
     22 N13        -46.5060   -29.5050     2.6010 ns         1 QRU      -0.480900
     23 N19        -50.4690   -29.1760     7.7720 ns         1 QRU      -0.162000
     24 N21        -51.8980   -29.0770     9.5640 ns         1 QRU      -0.509900
     25 O01        -44.4770   -30.6320     4.0370 o          1 QRU      -0.725500
     26 O07        -42.5590   -26.1150     0.7790 oh         1 QRU      -0.540100
     27 O25        -52.7700   -29.1700     7.4620 o          1 QRU      -0.619100
     28 O28        -48.5350   -29.4590     1.5660 o          1 QRU      -0.666100
     29 O29        -43.7610   -32.1630     2.7310 o          1 QRU      -0.725500
     30 H161       -50.5590   -29.4090     3.1320 ha         1 QRU       0.136000
     31 H171       -51.7010   -29.2950     5.2870 ha         1 QRU       0.123000
     32 H121       -46.2770   -30.3510     0.6470 h1         1 QRU       0.066700
     33 H101       -47.3350   -27.9840    -0.4470 ha         1 QRU       0.133000
     34 H031       -43.9140   -30.6130     0.8230 hc         1 QRU       0.051700
     35 H041       -43.5490   -28.3830     2.9460 hc         1 QRU       0.060700
     36 H042       -42.4390   -28.8650     1.6550 hc         1 QRU       0.060700
     37 H081       -44.3060   -24.9220    -0.8160 ha         1 QRU       0.093000
     38 H091       -46.5610   -25.8050    -1.3960 ha         1 QRU       0.097000
     39 H221       -53.8740   -28.3260     9.8760 h1         1 QRU       0.082700
     40 H232       -52.1390   -29.4150    12.2390 hc         1 QRU       0.076450
     41 H231       -53.8090   -28.6760    12.3760 hc         1 QRU       0.076450
     42 H241       -53.0590   -31.2200    10.7340 hc         1 QRU       0.076450
     43 H242       -54.7300   -30.4850    10.8740 hc         1 QRU       0.076450
     44 H261       -47.8840   -29.2110     7.3200 ha         1 QRU       0.123000
     45 H271       -46.7250   -29.3220     5.1710 ha         1 QRU       0.136000
     46 H131       -46.0310   -29.5910     3.4930 hn         1 QRU       0.378500
     47 H191       -49.7940   -29.1460     8.5230 hn         1 QRU       0.140000
     48 H211       -51.0320   -29.0550    10.0860 hn         1 QRU       0.309500
     49 H071       -42.4390   -25.2580     0.3180 ho         1 QRU       0.443000
@<TRIPOS>BOND
     1     1     3 ar  
     2     1    20 ar  
     3     1    23 1   
     4     2     3 ar  
     5     2     4 ar  
     6     2    30 1   
     7     3    31 1   
     8     4     5 1   
     9     4    21 ar  
    10     5    22 1   
    11     5    28 2   
    12     6     7 1   
    13     6    11 1   
    14     6    22 1   
    15     6    32 1   
    16     7     8 ar  
    17     7    13 ar  
    18     8    16 ar  
    19     8    33 1   
    20     9    23 1   
    21     9    24 1   
    22     9    27 2   
    23    10    11 1   
    24    10    25 1   
    25    10    29 1   
    26    11    12 1   
    27    11    34 1   
    28    12    13 1   
    29    12    35 1   
    30    12    36 1   
    31    13    14 ar  
    32    14    15 ar  
    33    14    26 1   
    34    15    16 ar  
    35    15    37 1   
    36    16    38 1   
    37    17    18 1   
    38    17    19 1   
    39    17    24 1   
    40    17    39 1   
    41    18    19 1   
    42    18    40 1   
    43    18    41 1   
    44    19    42 1   
    45    19    43 1   
    46    20    21 ar  
    47    20    44 1   
    48    21    45 1   
    49    22    46 1   
    50    23    47 1   
    51    24    48 1   
    52    26    49 1   
@<TRIPOS>SUBSTRUCTURE
     1 QRU         1 TEMP              0 ****  ****    0 ROOT
