@<TRIPOS>MOLECULE
QRU
   49    52     1     0     0
SMALL
abcg2


@<TRIPOS>ATOM
      1 C18        -49.8040   -29.0770     6.5680 ca         1 QRU      -0.005000
      2 C16        -49.8990   -29.5010     4.1970 ca         1 QRU      -0.037500
      3 C17        -50.5310   -29.4470     5.4290 ca         1 QRU      -0.172500
      4 C15        -48.5430   -29.2090     4.0500 ca         1 QRU      -0.154600
      5 C14        -47.9290   -29.3090     2.6910 c          1 QRU       0.605700
      6 C12        -45.8450   -29.6080     1.4140 c5         1 QRU       0.165000
      7 C11        -45.5480   -28.3050     0.6930 ca         1 QRU      -0.062300
      8 C10        -46.4080   -27.5280    -0.0740 ca         1 QRU      -0.112000
      9 C20        -51.6400   -29.2150     8.2650 c          1 QRU       0.660100
     10 C02        -44.3060   -31.0890     2.9380 c          1 QRU       0.718000
     11 C03        -44.4190   -30.1680     1.7080 c5         1 QRU      -0.204700
     12 C04        -43.5060   -28.9210     1.7800 c5         1 QRU      -0.013100
     13 C05        -44.2310   -27.9190     0.9250 ca         1 QRU      -0.091300
     14 C06        -43.7570   -26.7250     0.3910 ca         1 QRU       0.116100
     15 C08        -44.6060   -25.9360    -0.3850 ca         1 QRU      -0.207000
     16 C09        -45.9200   -26.3390    -0.6130 ca         1 QRU      -0.102000
     17 C22        -53.1280   -29.1070    10.1960 cx         1 QRU       0.065700
     18 C23        -53.1770   -29.5130    11.6380 cx         1 QRU      -0.135900
     19 C24        -53.6400   -30.4710    10.5700 cx         1 QRU      -0.135900
     20 C26        -48.4440   -28.7660     6.4260 ca         1 QRU      -0.172500
     21 C27        -47.8260   -28.8350     5.1910 ca         1 QRU      -0.037500
     22 N13        -46.5880   -29.3850     2.6510 ns         1 QRU      -0.480900
     23 N19        -50.3410   -28.9880     7.8510 ns         1 QRU      -0.162000
     24 N21        -51.8330   -28.9890     9.5960 ns         1 QRU      -0.509900
     25 O01        -44.5730   -30.5700     4.0620 o          1 QRU      -0.725500
     26 O07        -42.4590   -26.3770     0.6510 oh         1 QRU      -0.540100
     27 O25        -52.5360   -29.5980     7.5170 o          1 QRU      -0.619100
     28 O28        -48.6310   -29.3250     1.6700 o          1 QRU      -0.666100
     29 O29        -43.9530   -32.2750     2.7460 o          1 QRU      -0.725500
     30 H161       -50.4670   -29.7860     3.3210 ha         1 QRU       0.136000
     31 H171       -51.5760   -29.6920     5.5180 ha         1 QRU       0.123000
     32 H121       -46.4190   -30.2950     0.7910 h1         1 QRU       0.066700
     33 H101       -47.4300   -27.8380    -0.2450 ha         1 QRU       0.133000
     34 H031       -44.1350   -30.7450     0.8290 hc         1 QRU       0.051700
     35 H041       -43.4180   -28.5620     2.8090 hc         1 QRU       0.060700
     36 H042       -42.4980   -29.1350     1.4230 hc         1 QRU       0.060700
     37 H081       -44.2340   -25.0100    -0.8100 ha         1 QRU       0.093000
     38 H091       -46.5640   -25.7170    -1.2220 ha         1 QRU       0.097000
     39 H221       -53.8610   -28.3840     9.8570 h1         1 QRU       0.082700
     40 H232       -52.2330   -29.7230    12.1230 hc         1 QRU       0.076450
     41 H231       -53.9200   -29.0400    12.2650 hc         1 QRU       0.076450
     42 H241       -52.9980   -31.3100    10.3410 hc         1 QRU       0.076450
     43 H242       -54.7000   -30.6550    10.4640 hc         1 QRU       0.076450
     44 H261       -47.8740   -28.4630     7.2970 ha         1 QRU       0.123000
     45 H271       -46.7790   -28.5720     5.1260 ha         1 QRU       0.136000
     46 H131       -46.0500   -29.5840     3.4940 hn         1 QRU       0.378500
     47 H191       -49.6830   -28.7100     8.5640 hn         1 QRU       0.140000
     48 H211       -51.1160   -28.5200    10.1280 hn         1 QRU       0.309500
     49 H071       -42.2540   -25.5340     0.2230 ho         1 QRU       0.443000
@<TRIPOS>BOND
     1     1     3 ar  
     2     1    20 ar  
     3     1    23 1   
     4     2     3 ar  
     5     2     4 ar  
     6     2    30 1   
     7     3    31 1   
     8     4     5 1   
     9     4    21 ar  
    10     5    22 1   
    11     5    28 2   
    12     6     7 1   
    13     6    11 1   
    14     6    22 1   
    15     6    32 1   
    16     7     8 ar  
    17     7    13 ar  
    18     8    16 ar  
    19     8    33 1   
    20     9    23 1   
    21     9    24 1   
    22     9    27 2   
    23    10    11 1   
    24    10    25 1   
    25    10    29 1   
    26    11    12 1   
    27    11    34 1   
    28    12    13 1   
    29    12    35 1   
    30    12    36 1   
    31    13    14 ar  
    32    14    15 ar  
    33    14    26 1   
    34    15    16 ar  
    35    15    37 1   
    36    16    38 1   
    37    17    18 1   
    38    17    19 1   
    39    17    24 1   
    40    17    39 1   
    41    18    19 1   
    42    18    40 1   
    43    18    41 1   
    44    19    42 1   
    45    19    43 1   
    46    20    21 ar  
    47    20    44 1   
    48    21    45 1   
    49    22    46 1   
    50    23    47 1   
    51    24    48 1   
    52    26    49 1   
@<TRIPOS>SUBSTRUCTURE
     1 QRU         1 TEMP              0 ****  ****    0 ROOT
