@<TRIPOS>MOLECULE
QRW
   55    58     1     0     0
SMALL
No Charge or Current Charge


@<TRIPOS>ATOM
      1 C1          -7.7730     0.1500    -0.4270 ca         1 QRW      -0.087500
      2 C2          -8.5080    -0.2450    -1.5660 ca         1 QRW      -0.139000
      3 C3          -9.6780     0.4470    -1.9230 ca         1 QRW       0.333900
      4 N4         -10.1690     1.4830    -1.2050 nb         1 QRW      -0.654000
      5 C5          -9.4930     1.8470    -0.0910 ca         1 QRW       0.333900
      6 C6          -8.3140     1.2110     0.3350 ca         1 QRW      -0.139000
      7 C7          -6.5760    -0.6020    -0.0110 cc         1 QRW       0.430000
      8 N8          -6.3780    -1.8860    -0.2640 nd         1 QRW      -0.344000
      9 N9          -5.1730    -2.2520     0.2800 nd         1 QRW      -0.347000
     10 C10         -4.6400    -1.1820     0.8480 cc         1 QRW       0.359800
     11 N11         -5.4810    -0.1020     0.6690 na         1 QRW      -0.340000
     12 C12         -5.1980     1.3000     1.0430 c3         1 QRW       0.051900
     13 C13         -3.2900    -1.1460     1.5540 c3         1 QRW       0.177500
     14 N14         -2.1850    -0.5980     0.7130 nu         1 QRW      -0.951200
     15 C15         -0.8480    -0.4210     1.0820 ca         1 QRW       0.290000
     16 C16         -0.4240    -0.6180     2.4070 ca         1 QRW      -0.162000
     17 C17          0.9240    -0.4320     2.7510 ca         1 QRW      -0.079000
     18 C18          1.8570    -0.0470     1.7740 ca         1 QRW      -0.129000
     19 C19          1.4510     0.1590     0.4320 ca         1 QRW      -0.107600
     20 C20          0.0860    -0.0350     0.1080 ca         1 QRW      -0.123000
     21 C21          2.4250     0.5750    -0.6560 c          1 QRW       0.617700
     22 O22          2.0790     0.7430    -1.8180 o          1 QRW      -0.593100
     23 N23          3.7350     0.7570    -0.2750 ns         1 QRW      -0.503900
     24 C24          4.8160     1.1310    -1.1840 c3         1 QRW       0.137300
     25 C25          6.1640     1.1540    -0.4630 ca         1 QRW      -0.057300
     26 C26          7.0060     0.0090    -0.3550 ca         1 QRW      -0.174300
     27 C27          8.2370     0.1370     0.3370 ca         1 QRW      -0.067000
     28 C28          8.6190     1.3580     0.9130 ca         1 QRW      -0.110000
     29 C29          7.7830     2.4760     0.8100 ca         1 QRW      -0.082000
     30 C30          6.5640     2.3710     0.1260 ca         1 QRW      -0.115000
     31 C31          6.6200    -1.3500    -0.9770 c3         1 QRW       0.356300
     32 F32          7.4910    -2.3390    -0.6690 f          1 QRW      -0.110333
     33 F33          5.4070    -1.7770    -0.5590 f          1 QRW      -0.110333
     34 F34          6.5790    -1.2880    -2.3270 f          1 QRW      -0.110333
     35 H2          -8.1750    -1.0740    -2.1860 ha         1 QRW       0.133500
     36 H3         -10.2430     0.1600    -2.8080 h4         1 QRW       0.024100
     37 H5          -9.9170     2.6690     0.4850 h4         1 QRW       0.024100
     38 H6          -7.8550     1.5360     1.2620 ha         1 QRW       0.133500
     39 H12         -5.6060     1.5080     2.0400 h1         1 QRW       0.064700
     40 H12A        -4.1150     1.4770     1.0580 h1         1 QRW       0.064700
     41 H12B        -5.6480     1.9830     0.3120 h1         1 QRW       0.064700
     42 H13         -3.4010    -0.5420     2.4650 h1         1 QRW       0.064700
     43 H13A        -3.0410    -2.1670     1.8740 h1         1 QRW       0.064700
     44 HN14        -2.3940    -0.4450    -0.2770 hn         1 QRW       0.476000
     45 H16         -1.1300    -0.9150     3.1760 ha         1 QRW       0.114000
     46 H17          1.2480    -0.5870     3.7780 ha         1 QRW       0.114000
     47 H18          2.8920     0.0860     2.0780 ha         1 QRW       0.119000
     48 H20         -0.2520     0.1160    -0.9140 ha         1 QRW       0.134000
     49 HN23         3.9600     0.6020     0.6980 hn         1 QRW       0.318500
     50 H24          4.8340     0.4360    -2.0320 h1         1 QRW       0.070700
     51 H24A         4.6010     2.1280    -1.5910 h1         1 QRW       0.070700
     52 H27          8.9120    -0.7110     0.4350 ha         1 QRW       0.134000
     53 H28          9.5670     1.4350     1.4410 ha         1 QRW       0.123000
     54 H29          8.0780     3.4220     1.2590 ha         1 QRW       0.121000
     55 H30          5.9210     3.2470     0.0550 ha         1 QRW       0.119000
@<TRIPOS>BOND
     1     1     2 ar  
     2     1     6 ar  
     3     1     7 1   
     4     2     3 ar  
     5     2    35 1   
     6     3     4 ar  
     7     3    36 1   
     8     4     5 ar  
     9     5     6 ar  
    10     5    37 1   
    11     6    38 1   
    12     7     8 2   
    13     7    11 1   
    14     8     9 1   
    15     9    10 2   
    16    10    11 1   
    17    10    13 1   
    18    11    12 1   
    19    12    39 1   
    20    12    40 1   
    21    12    41 1   
    22    13    14 1   
    23    13    42 1   
    24    13    43 1   
    25    14    15 1   
    26    14    44 1   
    27    15    16 ar  
    28    15    20 ar  
    29    16    17 ar  
    30    16    45 1   
    31    17    18 ar  
    32    17    46 1   
    33    18    19 ar  
    34    18    47 1   
    35    19    20 ar  
    36    19    21 1   
    37    20    48 1   
    38    21    22 2   
    39    21    23 1   
    40    23    24 1   
    41    23    49 1   
    42    24    25 1   
    43    24    50 1   
    44    24    51 1   
    45    25    26 ar  
    46    25    30 ar  
    47    26    27 ar  
    48    26    31 1   
    49    27    28 ar  
    50    27    52 1   
    51    28    29 ar  
    52    28    53 1   
    53    29    30 ar  
    54    29    54 1   
    55    30    55 1   
    56    31    32 1   
    57    31    33 1   
    58    31    34 1   
@<TRIPOS>SUBSTRUCTURE
     1 QRW         1 TEMP              0 ****  ****    0 ROOT
