@<TRIPOS>MOLECULE
QRW
   55    58     1     0     0
SMALL
bcc


@<TRIPOS>ATOM
      1 C1          -7.4950     0.3030    -0.3170 ca         1 QRW      -0.087500
      2 C2          -8.2100     0.0550    -1.4860 ca         1 QRW      -0.222300
      3 C3          -9.2830     0.8730    -1.7970 ca         1 QRW       0.399200
      4 N4          -9.6760     1.8900    -1.0380 nb         1 QRW      -0.654000
      5 C5          -8.9990     2.1170     0.0800 ca         1 QRW       0.399200
      6 C6          -7.9110     1.3600     0.4870 ca         1 QRW      -0.222300
      7 C7          -6.3800    -0.5700     0.0420 cc         1 QRW       0.430000
      8 N8          -6.3600    -1.8590    -0.1770 nd         1 QRW      -0.344000
      9 N9          -5.1910    -2.3390     0.2900 nd         1 QRW      -0.347000
     10 C10         -4.5150    -1.3370     0.7820 cc         1 QRW       0.359800
     11 N11         -5.2240    -0.1900     0.6450 na         1 QRW      -0.310700
     12 C12         -4.7870     1.1390     1.0270 c3         1 QRW       0.022600
     13 C13         -3.1640    -1.4250     1.3960 c3         1 QRW       0.177500
     14 N14         -2.1790    -0.8090     0.5340 nu         1 QRW      -0.757600
     15 C15         -0.8680    -0.6700     0.9420 ca         1 QRW       0.151600
     16 C16         -0.4790    -0.7640     2.2830 ca         1 QRW      -0.180000
     17 C17          0.8460    -0.5630     2.6410 ca         1 QRW      -0.097000
     18 C18          1.8110    -0.2670     1.6920 ca         1 QRW      -0.147000
     19 C19          1.4340    -0.1800     0.3520 ca         1 QRW      -0.107600
     20 C20          0.1150    -0.3940    -0.0160 ca         1 QRW      -0.141000
     21 C21          2.4250     0.1000    -0.7320 c          1 QRW       0.684700
     22 O22          2.2930    -0.3650    -1.8560 o          1 QRW      -0.593100
     23 N23          3.4500     0.8940    -0.3790 ns         1 QRW      -0.570900
     24 C24          4.5410     1.2330    -1.2660 c3         1 QRW       0.137300
     25 C25          5.8470     1.2940    -0.5080 ca         1 QRW      -0.057300
     26 C26          6.6310     0.1760    -0.1860 ca         1 QRW      -0.174300
     27 C27          7.7990     0.3320     0.5520 ca         1 QRW      -0.085000
     28 C28          8.2020     1.5870     0.9830 ca         1 QRW      -0.128000
     29 C29          7.4390     2.6980     0.6670 ca         1 QRW      -0.100000
     30 C30          6.2750     2.5420    -0.0710 ca         1 QRW      -0.133000
     31 C31          6.2510    -1.2010    -0.6510 c3         1 QRW       0.720200
     32 F32          7.1100    -2.1350    -0.2340 f          1 QRW      -0.231633
     33 F33          5.0410    -1.5750    -0.2140 f          1 QRW      -0.231633
     34 F34          6.2200    -1.2860    -1.9910 f          1 QRW      -0.231633
     35 H2          -7.9320    -0.7520    -2.1500 ha         1 QRW       0.151500
     36 H3          -9.8470     0.6980    -2.7070 h4         1 QRW       0.024100
     37 H5          -9.3380     2.9430     0.6950 h4         1 QRW       0.024100
     38 H6          -7.4310     1.5910     1.4270 ha         1 QRW       0.151500
     39 H12         -5.0890     1.3690     2.0470 h1         1 QRW       0.064700
     40 H12A        -3.7040     1.1900     0.9510 h1         1 QRW       0.064700
     41 H12B        -5.2100     1.8740     0.3500 h1         1 QRW       0.064700
     42 H13         -3.1790    -0.9110     2.3590 h1         1 QRW       0.064700
     43 H13A        -2.9530    -2.4810     1.6010 h1         1 QRW       0.064700
     44 HN14        -2.2780    -1.0600    -0.4390 hn         1 QRW       0.420800
     45 H16         -1.1980    -0.9950     3.0570 ha         1 QRW       0.132000
     46 H17          1.1270    -0.6520     3.6830 ha         1 QRW       0.132000
     47 H18          2.8420    -0.1430     1.9960 ha         1 QRW       0.137000
     48 H20         -0.1670    -0.3350    -1.0610 ha         1 QRW       0.152000
     49 HN23         3.4200     1.3630     0.5120 hn         1 QRW       0.318500
     50 H24          4.5610     0.5130    -2.0800 h1         1 QRW       0.070700
     51 H24A         4.3650     2.2090    -1.7260 h1         1 QRW       0.070700
     52 H27          8.4130    -0.5220     0.8010 ha         1 QRW       0.152000
     53 H28          9.1130     1.6900     1.5570 ha         1 QRW       0.141000
     54 H29          7.7460     3.6840     0.9900 ha         1 QRW       0.139000
     55 H30          5.6820     3.4140    -0.3200 ha         1 QRW       0.137000
@<TRIPOS>BOND
     1     1     2 ar  
     2     1     6 ar  
     3     1     7 1   
     4     2     3 ar  
     5     2    35 1   
     6     3     4 ar  
     7     3    36 1   
     8     4     5 ar  
     9     5     6 ar  
    10     5    37 1   
    11     6    38 1   
    12     7     8 2   
    13     7    11 1   
    14     8     9 1   
    15     9    10 2   
    16    10    11 1   
    17    10    13 1   
    18    11    12 1   
    19    12    39 1   
    20    12    40 1   
    21    12    41 1   
    22    13    14 1   
    23    13    42 1   
    24    13    43 1   
    25    14    15 1   
    26    14    44 1   
    27    15    16 ar  
    28    15    20 ar  
    29    16    17 ar  
    30    16    45 1   
    31    17    18 ar  
    32    17    46 1   
    33    18    19 ar  
    34    18    47 1   
    35    19    20 ar  
    36    19    21 1   
    37    20    48 1   
    38    21    22 2   
    39    21    23 1   
    40    23    24 1   
    41    23    49 1   
    42    24    25 1   
    43    24    50 1   
    44    24    51 1   
    45    25    26 ar  
    46    25    30 ar  
    47    26    27 ar  
    48    26    31 1   
    49    27    28 ar  
    50    27    52 1   
    51    28    29 ar  
    52    28    53 1   
    53    29    30 ar  
    54    29    54 1   
    55    30    55 1   
    56    31    32 1   
    57    31    33 1   
    58    31    34 1   
@<TRIPOS>SUBSTRUCTURE
     1 QRW         1 TEMP              0 ****  ****    0 ROOT
