@<TRIPOS>MOLECULE
QRX
   57    60     1     0     0
SMALL
No Charge or Current Charge


@<TRIPOS>ATOM
      1 C1          -6.9950    -0.2640    -0.6770 ca         1 QRX       0.092000
      2 C2          -8.0740    -1.0800    -1.0960 ca         1 QRX      -0.170000
      3 C3          -9.1710    -0.4730    -1.7310 ca         1 QRX       0.101900
      4 N4          -9.2140     0.8560    -1.9450 nb         1 QRX      -0.164000
      5 C5          -8.1490     1.5620    -1.5160 ca         1 QRX       0.122900
      6 N6          -7.0530     1.0710    -0.8990 nb         1 QRX      -0.194000
      7 C7          -5.8200    -0.8640     0.0020 cc         1 QRX       0.315500
      8 N8          -5.7110    -2.1600     0.2660 nd         1 QRX      -0.351000
      9 N9          -4.5230    -2.3800     0.9100 nd         1 QRX      -0.351000
     10 C10         -3.9070    -1.2180     1.0400 cc         1 QRX       0.355800
     11 N11         -4.6780    -0.2210     0.4740 na         1 QRX      -0.313000
     12 C12         -4.3200     1.2140     0.4160 c3         1 QRX       0.070600
     13 C13         -4.9200     2.0270     1.5820 c3         1 QRX      -0.090400
     14 C14         -4.5650     3.5240     1.5130 c3         1 QRX      -0.088100
     15 C15         -2.5520    -1.0180     1.7110 c3         1 QRX       0.177500
     16 N16         -1.4310    -0.8090     0.7500 nu         1 QRX      -0.948200
     17 C17         -0.0900    -0.5610     1.0570 ca         1 QRX       0.292000
     18 C18          0.8650    -0.5810     0.0270 ca         1 QRX      -0.122000
     19 C19          2.2340    -0.3330     0.2870 ca         1 QRX      -0.109600
     20 C20          2.6250    -0.0610     1.6220 ca         1 QRX      -0.132000
     21 C21          1.6730    -0.0390     2.6540 ca         1 QRX      -0.079000
     22 C22          0.3200    -0.2880     2.3730 ca         1 QRX      -0.162000
     23 C23          3.2300    -0.3660    -0.8590 c          1 QRX       0.617700
     24 N24          4.5450    -0.1160    -0.5420 ns         1 QRX      -0.504900
     25 O25          2.8940    -0.6010    -2.0130 o          1 QRX      -0.594100
     26 C26          5.6370    -0.1060    -1.5110 c3         1 QRX       0.157300
     27 C27          6.9630     0.2080    -0.8310 ca         1 QRX      -0.200300
     28 C28          7.7700    -0.8260    -0.3170 ca         1 QRX       0.210000
     29 C29          8.9930    -0.5370     0.3100 ca         1 QRX      -0.173500
     30 C30          9.4270     0.7930     0.4330 ca         1 QRX      -0.052000
     31 C31          8.6290     1.8310    -0.0760 ca         1 QRX      -0.173500
     32 C32          7.4070     1.5400    -0.7020 ca         1 QRX       0.210000
     33 F33          6.6560     2.5580    -1.1790 f          1 QRX      -0.167500
     34 F34          7.3740    -2.1140    -0.4180 f          1 QRX      -0.167500
     35 H2          -8.0680    -2.1560    -0.9360 ha         1 QRX       0.162000
     36 H3         -10.0250    -1.0560    -2.0720 h4         1 QRX       0.031100
     37 H5          -8.1750     2.6370    -1.6850 h5         1 QRX       0.052100
     38 H12         -3.2270     1.3100     0.4460 h1         1 QRX       0.082200
     39 H12A        -4.6350     1.6370    -0.5450 h1         1 QRX       0.082200
     40 H13         -6.0110     1.9180     1.5850 hc         1 QRX       0.051700
     41 H13A        -4.5570     1.6170     2.5330 hc         1 QRX       0.051700
     42 H14         -4.9460     3.9710     0.5870 hc         1 QRX       0.038700
     43 H14A        -5.0070     4.0620     2.3600 hc         1 QRX       0.038700
     44 H14B        -3.4780     3.6680     1.5450 hc         1 QRX       0.038700
     45 H15         -2.6340    -0.1540     2.3850 h1         1 QRX       0.064200
     46 H15A        -2.3440    -1.8950     2.3390 h1         1 QRX       0.064200
     47 HN16        -1.6260    -1.0120    -0.2340 hn         1 QRX       0.475000
     48 H18          0.5380    -0.7910    -0.9880 ha         1 QRX       0.135000
     49 H20          3.6630     0.1360     1.8780 ha         1 QRX       0.116000
     50 H21          1.9840     0.1710     3.6750 ha         1 QRX       0.114000
     51 H22         -0.4010    -0.2650     3.1840 ha         1 QRX       0.114000
     52 HN24         4.7600     0.0710     0.4270 hn         1 QRX       0.318500
     53 H26          5.6870    -1.0860    -2.0060 h1         1 QRX       0.075700
     54 H26A         5.4220     0.6420    -2.2870 h1         1 QRX       0.075700
     55 H29          9.6020    -1.3480     0.7010 ha         1 QRX       0.139000
     56 H30         10.3750     1.0180     0.9190 ha         1 QRX       0.124000
     57 H31          8.9550     2.8640     0.0160 ha         1 QRX       0.139000
@<TRIPOS>BOND
     1     1     2 ar  
     2     1     6 ar  
     3     1     7 1   
     4     2     3 ar  
     5     2    35 1   
     6     3     4 ar  
     7     3    36 1   
     8     4     5 ar  
     9     5     6 ar  
    10     5    37 1   
    11     7     8 2   
    12     7    11 1   
    13     8     9 1   
    14     9    10 2   
    15    10    11 1   
    16    10    15 1   
    17    11    12 1   
    18    12    13 1   
    19    12    38 1   
    20    12    39 1   
    21    13    14 1   
    22    13    40 1   
    23    13    41 1   
    24    14    42 1   
    25    14    43 1   
    26    14    44 1   
    27    15    16 1   
    28    15    45 1   
    29    15    46 1   
    30    16    17 1   
    31    16    47 1   
    32    17    18 ar  
    33    17    22 ar  
    34    18    19 ar  
    35    18    48 1   
    36    19    20 ar  
    37    19    23 1   
    38    20    21 ar  
    39    20    49 1   
    40    21    22 ar  
    41    21    50 1   
    42    22    51 1   
    43    23    24 1   
    44    23    25 2   
    45    24    26 1   
    46    24    52 1   
    47    26    27 1   
    48    26    53 1   
    49    26    54 1   
    50    27    28 ar  
    51    27    32 ar  
    52    28    29 ar  
    53    28    34 1   
    54    29    30 ar  
    55    29    55 1   
    56    30    31 ar  
    57    30    56 1   
    58    31    32 ar  
    59    31    57 1   
    60    32    33 1   
@<TRIPOS>SUBSTRUCTURE
     1 QRX         1 TEMP              0 ****  ****    0 ROOT
