@<TRIPOS>MOLECULE
QRX
   57    60     1     0     0
SMALL
abcg2


@<TRIPOS>ATOM
      1 C1          -6.7710    -0.1430    -0.6970 ca         1 QRX       0.092000
      2 C2          -7.8110    -0.9350    -1.1740 ca         1 QRX      -0.170000
      3 C3          -8.8480    -0.2770    -1.8050 ca         1 QRX       0.101900
      4 N4          -8.8680     1.0440    -1.9600 nb         1 QRX      -0.164000
      5 C5          -7.8290     1.7020    -1.4710 ca         1 QRX       0.122900
      6 N6          -6.7870     1.1770    -0.8480 nb         1 QRX      -0.194000
      7 C7          -5.6400    -0.7640    -0.0090 cc         1 QRX       0.315500
      8 N8          -5.5930    -2.0460     0.2530 nd         1 QRX      -0.351000
      9 N9          -4.4380    -2.3010     0.8810 nd         1 QRX      -0.351000
     10 C10         -3.7900    -1.1700     0.9950 cc         1 QRX       0.355800
     11 N11         -4.5050    -0.1640     0.4410 na         1 QRX      -0.313000
     12 C12         -4.1190     1.2440     0.4370 c3         1 QRX       0.070600
     13 C13         -4.7170     2.0100     1.6060 c3         1 QRX      -0.090400
     14 C14         -4.3040     3.4730     1.5610 c3         1 QRX      -0.088100
     15 C15         -2.4560    -1.0220     1.6370 c3         1 QRX       0.177500
     16 N16         -1.4520    -0.7010     0.6470 nu         1 QRX      -0.948200
     17 C17         -0.1350    -0.5150     1.0150 ca         1 QRX       0.292000
     18 C18          0.8530    -0.5250     0.0240 ca         1 QRX      -0.122000
     19 C19          2.1880    -0.3360     0.3420 ca         1 QRX      -0.109600
     20 C20          2.5670    -0.0970     1.6640 ca         1 QRX      -0.132000
     21 C21          1.5900    -0.0670     2.6450 ca         1 QRX      -0.079000
     22 C22          0.2540    -0.2820     2.3390 ca         1 QRX      -0.162000
     23 C23          3.1800    -0.3520    -0.7770 c          1 QRX       0.617700
     24 N24          4.4040    -0.8060    -0.4530 ns         1 QRX      -0.504900
     25 O25          2.8740     0.0170    -1.9020 o          1 QRX      -0.594100
     26 C26          5.5270    -0.8190    -1.3630 c3         1 QRX       0.157300
     27 C27          6.6990    -0.0700    -0.7870 ca         1 QRX      -0.200300
     28 C28          7.8700    -0.6890    -0.3730 ca         1 QRX       0.210000
     29 C29          8.9400    -0.0050     0.1730 ca         1 QRX      -0.173500
     30 C30          8.8400     1.3700     0.3180 ca         1 QRX      -0.052000
     31 C31          7.6920     2.0430    -0.0750 ca         1 QRX      -0.173500
     32 C32          6.6570     1.3080    -0.6140 ca         1 QRX       0.210000
     33 F33          5.5430     1.9480    -0.9970 f          1 QRX      -0.167500
     34 F34          7.9700    -2.0190    -0.5080 f          1 QRX      -0.167500
     35 H2          -7.8120    -2.0090    -1.0590 ha         1 QRX       0.162000
     36 H3          -9.6920    -0.8310    -2.1990 h4         1 QRX       0.031100
     37 H5          -7.8280     2.7790    -1.5890 h5         1 QRX       0.052100
     38 H12         -3.0300     1.2760     0.4690 h1         1 QRX       0.082200
     39 H12A        -4.4280     1.6810    -0.5070 h1         1 QRX       0.082200
     40 H13         -5.8050     1.9260     1.5730 hc         1 QRX       0.051700
     41 H13A        -4.3900     1.5590     2.5460 hc         1 QRX       0.051700
     42 H14         -4.6470     3.9540     0.6440 hc         1 QRX       0.038700
     43 H14A        -4.7280     4.0220     2.4010 hc         1 QRX       0.038700
     44 H14B        -3.2200     3.5820     1.6090 hc         1 QRX       0.038700
     45 H15         -2.5030    -0.2270     2.3860 h1         1 QRX       0.064200
     46 H15A        -2.2440    -1.9520     2.1760 h1         1 QRX       0.064200
     47 HN16        -1.5630    -1.1990    -0.2230 hn         1 QRX       0.475000
     48 H18          0.5670    -0.6980    -1.0070 ha         1 QRX       0.135000
     49 H20          3.5990     0.0930     1.9290 ha         1 QRX       0.116000
     50 H21          1.8680     0.1260     3.6730 ha         1 QRX       0.114000
     51 H22         -0.4740    -0.2640     3.1380 ha         1 QRX       0.114000
     52 HN24         4.5480    -1.2130     0.4570 hn         1 QRX       0.318500
     53 H26          5.8080    -1.8450    -1.5960 h1         1 QRX       0.075700
     54 H26A         5.2120    -0.3630    -2.3000 h1         1 QRX       0.075700
     55 H29          9.8290    -0.5390     0.4800 ha         1 QRX       0.139000
     56 H30          9.6670     1.9230     0.7420 ha         1 QRX       0.124000
     57 H31          7.6030     3.1160     0.0330 ha         1 QRX       0.139000
@<TRIPOS>BOND
     1     1     2 ar  
     2     1     6 ar  
     3     1     7 1   
     4     2     3 ar  
     5     2    35 1   
     6     3     4 ar  
     7     3    36 1   
     8     4     5 ar  
     9     5     6 ar  
    10     5    37 1   
    11     7     8 2   
    12     7    11 1   
    13     8     9 1   
    14     9    10 2   
    15    10    11 1   
    16    10    15 1   
    17    11    12 1   
    18    12    13 1   
    19    12    38 1   
    20    12    39 1   
    21    13    14 1   
    22    13    40 1   
    23    13    41 1   
    24    14    42 1   
    25    14    43 1   
    26    14    44 1   
    27    15    16 1   
    28    15    45 1   
    29    15    46 1   
    30    16    17 1   
    31    16    47 1   
    32    17    18 ar  
    33    17    22 ar  
    34    18    19 ar  
    35    18    48 1   
    36    19    20 ar  
    37    19    23 1   
    38    20    21 ar  
    39    20    49 1   
    40    21    22 ar  
    41    21    50 1   
    42    22    51 1   
    43    23    24 1   
    44    23    25 2   
    45    24    26 1   
    46    24    52 1   
    47    26    27 1   
    48    26    53 1   
    49    26    54 1   
    50    27    28 ar  
    51    27    32 ar  
    52    28    29 ar  
    53    28    34 1   
    54    29    30 ar  
    55    29    55 1   
    56    30    31 ar  
    57    30    56 1   
    58    31    32 ar  
    59    31    57 1   
    60    32    33 1   
@<TRIPOS>SUBSTRUCTURE
     1 QRX         1 TEMP              0 ****  ****    0 ROOT
