@<TRIPOS>MOLECULE
QRY
   54    57     1     0     0
SMALL
No Charge or Current Charge


@<TRIPOS>ATOM
      1 C4          -3.2060     0.6230     1.0020 ca         1 QRY      -0.021300
      2 C14          7.7520     1.6300     1.2010 ca         1 QRY      -0.133000
      3 C5          -1.8030     0.8390     1.5550 c3         1 QRY      -0.045100
      4 C6          -0.7180     0.3920     0.5570 c3         1 QRY       0.161800
      5 C11          6.3910     0.8060    -1.0860 ca         1 QRY      -0.065200
      6 C7           1.7820     0.1840     0.2600 c3         1 QRY       0.131800
      7 C8           3.2010     0.6070     0.8040 c          1 QRY       0.610300
      8 C9           4.3390     0.6100    -0.1620 cc         1 QRY      -0.242400
      9 C10          4.2600     0.2700    -1.5140 cd         1 QRY      -0.102100
     10 C12          7.7660     1.0630    -1.1810 ca         1 QRY      -0.124000
     11 C13          8.4490     1.4800    -0.0200 ca         1 QRY      -0.093000
     12 N2           0.6290     0.5990     1.1290 n7         1 QRY      -0.851400
     13 C3          -3.8150    -0.6430     1.0910 ca         1 QRY      -0.129000
     14 N3           5.5430     0.3910    -2.0980 na         1 QRY      -0.207700
     15 S1          -7.4540    -0.0400    -0.6870 sy         1 QRY       1.141600
     16 O1          -7.7160    -1.4690    -0.8440 o          1 QRY      -0.530500
     17 O2          -7.7550     0.9450    -1.7260 o          1 QRY      -0.530500
     18 C1          -5.8030     0.2130    -0.0320 ca         1 QRY      -0.323500
     19 C2          -5.1070    -0.8510     0.5780 ca         1 QRY      -0.015000
     20 C15          6.3670     1.3660     1.2690 ca         1 QRY      -0.053000
     21 C16          5.7150     0.9520     0.0950 ca         1 QRY      -0.050800
     22 C17          1.7310    -1.3250     0.0020 ca         1 QRY      -0.089300
     23 C18          2.0680    -2.2390     1.0230 ca         1 QRY      -0.089500
     24 C19          2.0230    -3.6230     0.7820 ca         1 QRY      -0.115000
     25 C20          1.6360    -4.1060    -0.4790 ca         1 QRY      -0.103000
     26 C21          1.2910    -3.2040    -1.4980 ca         1 QRY      -0.115000
     27 C22          1.3360    -1.8190    -1.2590 ca         1 QRY      -0.089500
     28 C23         -3.9030     1.6820     0.3920 ca         1 QRY      -0.129000
     29 C24         -5.1950     1.4830    -0.1230 ca         1 QRY      -0.015000
     30 H1           8.2850     1.9520     2.0930 ha         1 QRY       0.114000
     31 H2          -1.6530     1.8960     1.8040 hc         1 QRY       0.060700
     32 H3          -1.6810     0.2810     2.4900 hc         1 QRY       0.060700
     33 H4          -0.8780    -0.6680     0.3190 h1         1 QRY       0.037200
     34 H5          -0.8320     0.9640    -0.3750 h1         1 QRY       0.037200
     35 H6           1.6790     0.6990    -0.7050 h1         1 QRY       0.029700
     36 H7           3.4040    -0.0480    -2.1040 h4         1 QRY       0.213000
     37 H8           8.2950     0.9440    -2.1250 ha         1 QRY       0.114000
     38 H9           9.5170     1.6860    -0.0640 ha         1 QRY       0.112000
     39 H10         -8.9300    -0.4530     0.7190 hn         1 QRY       0.475500
     40 H11         -7.6990     0.3500     1.3550 hn         1 QRY       0.475500
     41 H12          0.7350     1.5970     1.3500 hn         1 QRY       0.423000
     42 H14         -3.2840    -1.4700     1.5570 ha         1 QRY       0.120500
     43 H15          5.7920     0.2090    -3.0660 hn         1 QRY       0.353000
     44 H16         -5.5570    -1.8400     0.6570 ha         1 QRY       0.135500
     45 H17          5.8320     1.4810     2.2080 ha         1 QRY       0.137000
     46 H18          2.3600    -1.8760     2.0060 ha         1 QRY       0.119000
     47 H19          2.2850    -4.3210     1.5740 ha         1 QRY       0.112500
     48 H20          1.6010    -5.1770    -0.6650 ha         1 QRY       0.112000
     49 H21          0.9860    -3.5760    -2.4740 ha         1 QRY       0.112500
     50 H22          1.0580    -1.1300    -2.0540 ha         1 QRY       0.119000
     51 H23         -3.4430     2.6650     0.3130 ha         1 QRY       0.120500
     52 H24         -5.7190     2.3160    -0.5910 ha         1 QRY       0.135500
     53 O3           3.3610     0.9240     1.9800 o          1 QRY      -0.517100
     54 N1          -8.3730     0.3890     0.5940 n8         1 QRY      -0.997100
@<TRIPOS>BOND
     1     1     3 1   
     2     1    13 ar  
     3     1    28 ar  
     4     2    11 ar  
     5     2    20 ar  
     6     2    30 1   
     7     3     4 1   
     8     3    31 1   
     9     3    32 1   
    10     4    12 1   
    11     4    33 1   
    12     4    34 1   
    13     5    10 ar  
    14     5    14 1   
    15     5    21 ar  
    16     6     7 1   
    17     6    12 1   
    18     6    22 1   
    19     6    35 1   
    20     7     8 1   
    21     7    53 2   
    22     8     9 2   
    23     8    21 1   
    24     9    14 1   
    25     9    36 1   
    26    10    11 ar  
    27    10    37 1   
    28    11    38 1   
    29    12    41 1   
    30    13    19 ar  
    31    13    42 1   
    32    14    43 1   
    33    15    16 2   
    34    15    17 2   
    35    15    18 1   
    36    15    54 1   
    37    18    19 ar  
    38    18    29 ar  
    39    19    44 1   
    40    20    21 ar  
    41    20    45 1   
    42    22    23 ar  
    43    22    27 ar  
    44    23    24 ar  
    45    23    46 1   
    46    24    25 ar  
    47    24    47 1   
    48    25    26 ar  
    49    25    48 1   
    50    26    27 ar  
    51    26    49 1   
    52    27    50 1   
    53    28    29 ar  
    54    28    51 1   
    55    29    52 1   
    56    39    54 1   
    57    40    54 1   
@<TRIPOS>SUBSTRUCTURE
     1 QRY         1 TEMP              0 ****  ****    0 ROOT
