@<TRIPOS>MOLECULE
QRY
   54    57     1     0     0
SMALL
bcc


@<TRIPOS>ATOM
      1 C4          -3.1290     0.4790     1.1020 ca         1 QRY      -0.021300
      2 C14          7.6320     1.2190     1.0570 ca         1 QRY      -0.151000
      3 C5          -1.7480     0.6000     1.6760 c3         1 QRY      -0.045100
      4 C6          -0.6920     0.2860     0.6180 c3         1 QRY       0.161800
      5 C11          6.1220     1.1210    -1.2270 ca         1 QRY      -0.065200
      6 C7           1.6730     0.0780     0.2240 c3         1 QRY       0.131800
      7 C8           3.0430     0.5390     0.7300 c          1 QRY       0.610300
      8 C9           4.0900     0.7510    -0.2500 cc         1 QRY      -0.242400
      9 C10          3.9540     0.8090    -1.6230 cd         1 QRY      -0.052100
     10 C12          7.4900     1.3340    -1.3600 ca         1 QRY      -0.142000
     11 C13          8.2360     1.3800    -0.1980 ca         1 QRY      -0.111000
     12 N2           0.6410     0.4550     1.1610 n7         1 QRY      -0.796200
     13 C3          -3.8060    -0.7380     1.1270 ca         1 QRY      -0.147000
     14 N3           5.1510     1.0280    -2.1930 na         1 QRY      -0.157400
     15 S1          -7.2490     0.0810    -0.7910 sy         1 QRY       1.283200
     16 O1          -7.4930    -1.3240    -1.0710 o          1 QRY      -0.601300
     17 O2          -7.3470     1.0650    -1.8570 o          1 QRY      -0.601300
     18 C1          -5.6380     0.2280    -0.0670 ca         1 QRY      -0.323500
     19 C2          -5.0580    -0.8730     0.5480 ca         1 QRY      -0.033000
     20 C15          6.2720     1.0090     1.1810 ca         1 QRY      -0.071000
     21 C16          5.4910     0.9580     0.0220 ca         1 QRY      -0.050800
     22 C17          1.7430    -1.4310     0.0730 ca         1 QRY      -0.089300
     23 C18          1.7420    -2.2410     1.2060 ca         1 QRY      -0.107500
     24 C19          1.8350    -3.6200     1.0820 ca         1 QRY      -0.133000
     25 C20          1.9290    -4.2060    -0.1750 ca         1 QRY      -0.121000
     26 C21          1.9250    -3.4040    -1.3080 ca         1 QRY      -0.133000
     27 C22          1.8310    -2.0230    -1.1810 ca         1 QRY      -0.107500
     28 C23         -3.7350     1.5680     0.4790 ca         1 QRY      -0.147000
     29 C24         -4.9840     1.4520    -0.1080 ca         1 QRY      -0.033000
     30 H1           8.2480     1.2630     1.9460 ha         1 QRY       0.132000
     31 H2          -1.5920     1.6130     2.0570 hc         1 QRY       0.060700
     32 H3          -1.6250    -0.0870     2.5160 hc         1 QRY       0.060700
     33 H4          -0.8120    -0.7520     0.2960 h1         1 QRY       0.037200
     34 H5          -0.8700     0.9100    -0.2720 h1         1 QRY       0.037200
     35 H6           1.5000     0.5100    -0.7740 h1         1 QRY       0.029700
     36 H7           3.0740     0.7300    -2.2400 h4         1 QRY       0.163000
     37 H8           7.9500     1.4570    -2.3320 ha         1 QRY       0.132000
     38 H9           9.3050     1.5410    -0.2580 ha         1 QRY       0.130000
     39 H10         -8.3930    -0.1040     1.1420 hn         1 QRY       0.420300
     40 H11         -8.2700     1.4880     0.6450 hn         1 QRY       0.420300
     41 H12          0.7660     1.4220     1.4350 hn         1 QRY       0.367800
     42 H14         -3.3480    -1.5960     1.6030 ha         1 QRY       0.138500
     43 H15          5.3010     1.1130    -3.1860 hn         1 QRY       0.302700
     44 H16         -5.5630    -1.8290     0.5750 ha         1 QRY       0.153500
     45 H17          5.8240     0.8880     2.1570 ha         1 QRY       0.155000
     46 H18          1.6580    -1.7890     2.1850 ha         1 QRY       0.137000
     47 H19          1.8330    -4.2410     1.9680 ha         1 QRY       0.130500
     48 H20          1.9990    -5.2820    -0.2700 ha         1 QRY       0.130000
     49 H21          1.9880    -3.8510    -2.2920 ha         1 QRY       0.130500
     50 H22          1.8150    -1.4060    -2.0720 ha         1 QRY       0.137000
     51 H23         -3.2240     2.5230     0.4500 ha         1 QRY       0.138500
     52 H24         -5.4320     2.3100    -0.5920 ha         1 QRY       0.153500
     53 O3           3.2450     0.6770     1.9220 o          1 QRY      -0.517100
     54 N1          -8.3510     0.5230     0.3460 n8         1 QRY      -0.886700
@<TRIPOS>BOND
     1     1     3 1   
     2     1    13 ar  
     3     1    28 ar  
     4     2    11 ar  
     5     2    20 ar  
     6     2    30 1   
     7     3     4 1   
     8     3    31 1   
     9     3    32 1   
    10     4    12 1   
    11     4    33 1   
    12     4    34 1   
    13     5    10 ar  
    14     5    14 1   
    15     5    21 ar  
    16     6     7 1   
    17     6    12 1   
    18     6    22 1   
    19     6    35 1   
    20     7     8 1   
    21     7    53 2   
    22     8     9 2   
    23     8    21 1   
    24     9    14 1   
    25     9    36 1   
    26    10    11 ar  
    27    10    37 1   
    28    11    38 1   
    29    12    41 1   
    30    13    19 ar  
    31    13    42 1   
    32    14    43 1   
    33    15    16 2   
    34    15    17 2   
    35    15    18 1   
    36    15    54 1   
    37    18    19 ar  
    38    18    29 ar  
    39    19    44 1   
    40    20    21 ar  
    41    20    45 1   
    42    22    23 ar  
    43    22    27 ar  
    44    23    24 ar  
    45    23    46 1   
    46    24    25 ar  
    47    24    47 1   
    48    25    26 ar  
    49    25    48 1   
    50    26    27 ar  
    51    26    49 1   
    52    27    50 1   
    53    28    29 ar  
    54    28    51 1   
    55    29    52 1   
    56    39    54 1   
    57    40    54 1   
@<TRIPOS>SUBSTRUCTURE
     1 QRY         1 TEMP              0 ****  ****    0 ROOT
