@<TRIPOS>MOLECULE
QS0
   59    63     1     0     0
SMALL
No Charge or Current Charge


@<TRIPOS>ATOM
      1 C3         -25.4410   -30.2090     0.5190 c6         1 QS0       0.159300
      2 C1         -26.0390   -32.0110    -1.0710 c3         1 QS0       0.157100
      3 C6         -22.6010   -30.4920    -0.1200 c6         1 QS0       0.220800
      4 C8         -22.0570   -28.9270     1.8010 ca         1 QS0       0.342000
      5 C9         -22.3280   -28.6280     3.1450 ca         1 QS0      -0.240000
      6 C10        -21.3920   -27.9180     3.9290 ca         1 QS0       0.126100
      7 C12        -19.8910   -27.8140     2.0130 ca         1 QS0      -0.071000
      8 C17        -16.4870   -24.7110     4.8910 ca         1 QS0       0.150900
      9 C18        -16.1210   -24.2480     3.6180 ca         1 QS0      -0.281000
     10 C19        -16.8650   -24.7010     2.5140 ca         1 QS0       0.271800
     11 O31        -21.6380   -27.6230     5.2640 os         1 QS0      -0.369100
     12 C30        -17.5190   -23.6380    -2.3770 c3         1 QS0       0.063900
     13 C11        -20.1630   -27.4880     3.3580 ca         1 QS0       0.248000
     14 C13        -20.8310   -28.5230     1.2440 ca         1 QS0      -0.196000
     15 C15        -18.1770   -25.9280     3.9480 ca         1 QS0       0.392900
     16 C21        -16.5590   -24.2540     1.1540 cc         1 QS0      -0.249000
     17 C22        -17.5330   -24.2120     0.1580 cd         1 QS0      -0.073100
     18 C24        -15.5550   -23.6900    -0.7820 ca         1 QS0      -0.124200
     19 C25        -15.2970   -23.9570     0.5330 ca         1 QS0      -0.028800
     20 C26        -13.9790   -23.9470     1.0070 ca         1 QS0      -0.119000
     21 C27        -12.9670   -23.6210     0.0800 ca         1 QS0       0.303900
     22 C29        -14.5010   -23.3760    -1.6600 ca         1 QS0       0.339900
     23 C32        -22.8540   -28.0100     5.9310 c3         1 QS0       0.155900
     24 C4         -24.4030   -29.1020     0.9030 c6         1 QS0       0.220800
     25 C7         -23.6740   -31.5720    -0.4840 c6         1 QS0       0.159300
     26 N14        -19.2460   -26.7860     4.1690 nu         1 QS0      -0.919900
     27 N16        -17.5200   -25.5570     5.0590 nb         1 QS0      -0.248000
     28 N2         -25.0370   -30.9920    -0.6900 n3         1 QS0      -0.720600
     29 N20        -17.9080   -25.5370     2.6910 nb         1 QS0      -0.269000
     30 N23        -16.9130   -23.8170    -1.0490 na         1 QS0      -0.081700
     31 N28        -13.2120   -23.3360    -1.2300 nb         1 QS0      -0.659000
     32 N5         -23.0110   -29.6390     1.0430 nh         1 QS0      -0.812400
     33 H1         -26.4160   -29.7290     0.3530 h1         1 QS0       0.039200
     34 H2         -25.5600   -30.8830     1.3800 h1         1 QS0       0.039200
     35 H3         -27.0150   -31.5440    -1.2590 h1         1 QS0       0.032033
     36 H4         -25.7320   -32.5330    -1.9870 h1         1 QS0       0.032033
     37 H5         -26.1630   -32.7570    -0.2740 h1         1 QS0       0.032033
     38 H6         -21.6560   -31.0080     0.1020 h1         1 QS0       0.041950
     39 H7         -22.4290   -29.8580    -1.0020 h1         1 QS0       0.041950
     40 H8         -23.2660   -28.9680     3.5690 ha         1 QS0       0.114000
     41 H9         -18.9480   -27.5380     1.5560 ha         1 QS0       0.143000
     42 H10        -15.9550   -24.3940     5.7870 h4         1 QS0       0.019100
     43 H11        -15.3060   -23.5430     3.5030 ha         1 QS0       0.132000
     44 H12        -18.6040   -23.7810    -2.3120 h1         1 QS0       0.055033
     45 H13        -17.3090   -22.6260    -2.7440 h1         1 QS0       0.055033
     46 H14        -17.0990   -24.3730    -3.0750 h1         1 QS0       0.055033
     47 H15        -20.5970   -28.7470     0.2080 ha         1 QS0       0.112000
     48 H16        -18.5980   -24.4220     0.2160 h4         1 QS0       0.231000
     49 H17        -13.7290   -24.1880     2.0350 ha         1 QS0       0.125000
     50 H18        -11.9230   -23.5940     0.3920 h4         1 QS0       0.018100
     51 H19        -14.6790   -23.1630    -2.7140 h4         1 QS0       0.018100
     52 H20        -22.8380   -27.6740     6.9750 h1         1 QS0       0.041367
     53 H21        -23.7270   -27.5590     5.4420 h1         1 QS0       0.041367
     54 H22        -22.9710   -29.1010     5.9270 h1         1 QS0       0.041367
     55 H23        -24.4180   -28.3240     0.1260 h1         1 QS0       0.041950
     56 H24        -24.7360   -28.6290     1.8370 h1         1 QS0       0.041950
     57 H25        -23.7020   -32.3160     0.3260 h1         1 QS0       0.039200
     58 H26        -23.3440   -32.0990    -1.3900 h1         1 QS0       0.039200
     59 H27        -19.5050   -26.8270     5.1560 hn         1 QS0       0.525000
@<TRIPOS>BOND
     1     1    24 1   
     2     1    28 1   
     3     1    33 1   
     4     1    34 1   
     5     2    28 1   
     6     2    35 1   
     7     2    36 1   
     8     2    37 1   
     9     3    25 1   
    10     3    32 1   
    11     3    38 1   
    12     3    39 1   
    13     4     5 ar  
    14     4    14 ar  
    15     4    32 1   
    16     5     6 ar  
    17     5    40 1   
    18     6    11 1   
    19     6    13 ar  
    20     7    13 ar  
    21     7    14 ar  
    22     7    41 1   
    23     8     9 ar  
    24     8    27 ar  
    25     8    42 1   
    26     9    10 ar  
    27     9    43 1   
    28    10    16 1   
    29    10    29 ar  
    30    11    23 1   
    31    12    30 1   
    32    12    44 1   
    33    12    45 1   
    34    12    46 1   
    35    13    26 1   
    36    14    47 1   
    37    15    26 1   
    38    15    27 ar  
    39    15    29 ar  
    40    16    17 2   
    41    16    19 1   
    42    17    30 1   
    43    17    48 1   
    44    18    19 ar  
    45    18    22 ar  
    46    18    30 1   
    47    19    20 ar  
    48    20    21 ar  
    49    20    49 1   
    50    21    31 ar  
    51    21    50 1   
    52    22    31 ar  
    53    22    51 1   
    54    23    52 1   
    55    23    53 1   
    56    23    54 1   
    57    24    32 1   
    58    24    55 1   
    59    24    56 1   
    60    25    28 1   
    61    25    57 1   
    62    25    58 1   
    63    26    59 1   
@<TRIPOS>SUBSTRUCTURE
     1 QS0         1 TEMP              0 ****  ****    0 ROOT
