@<TRIPOS>MOLECULE
QS0
   59    63     1     0     0
SMALL
abcg2


@<TRIPOS>ATOM
      1 C3         -25.3560   -30.4740     0.8200 c6         1 QS0       0.159300
      2 C1         -26.0090   -31.1860    -1.3950 c3         1 QS0       0.157100
      3 C6         -22.6670   -29.9880    -0.2320 c6         1 QS0       0.220800
      4 C8         -22.1970   -28.7870     1.8450 ca         1 QS0       0.342000
      5 C9         -22.3540   -28.6050     3.2360 ca         1 QS0      -0.240000
      6 C10        -21.4810   -27.8080     3.9580 ca         1 QS0       0.126100
      7 C12        -20.2270   -27.3560     1.9720 ca         1 QS0      -0.071000
      8 C17        -16.8720   -24.2820     4.8000 ca         1 QS0       0.150900
      9 C18        -16.3320   -24.0600     3.5410 ca         1 QS0      -0.281000
     10 C19        -16.9630   -24.6860     2.4630 ca         1 QS0       0.271800
     11 O31        -21.5880   -27.5990     5.3030 os         1 QS0      -0.369100
     12 C30        -17.1180   -24.8790    -2.5140 c3         1 QS0       0.063900
     13 C11        -20.3910   -27.1590     3.3380 ca         1 QS0       0.248000
     14 C13        -21.1010   -28.1530     1.2390 ca         1 QS0      -0.196000
     15 C15        -18.4820   -25.6130     3.9140 ca         1 QS0       0.392900
     16 C21        -16.5230   -24.5320     1.0860 cc         1 QS0      -0.249000
     17 C22        -17.2790   -24.9090    -0.0140 cd         1 QS0      -0.073100
     18 C24        -15.4040   -24.0690    -0.8580 ca         1 QS0      -0.124200
     19 C25        -15.3000   -23.9850     0.5550 ca         1 QS0      -0.028800
     20 C26        -14.1050   -23.4590     1.0620 ca         1 QS0      -0.119000
     21 C27        -13.1390   -23.0520     0.1580 ca         1 QS0       0.303900
     22 C29        -14.3800   -23.6340    -1.6900 ca         1 QS0       0.339900
     23 C32        -22.6520   -28.2250     6.0160 c3         1 QS0       0.155900
     24 C4         -24.1200   -30.3520     1.7180 c6         1 QS0       0.220800
     25 C7         -23.6600   -30.9870    -0.8100 c6         1 QS0       0.159300
     26 N14        -19.5690   -26.3910     4.1750 nu         1 QS0      -0.919900
     27 N16        -17.9340   -25.0460     5.0170 nb         1 QS0      -0.248000
     28 N2         -25.0100   -30.4900    -0.6060 n3         1 QS0      -0.720600
     29 N20        -18.0440   -25.4650     2.6640 nb         1 QS0      -0.269000
     30 N23        -16.6240   -24.6340    -1.1700 na         1 QS0      -0.081700
     31 N28        -13.2590   -23.1260    -1.1840 nb         1 QS0      -0.659000
     32 N5         -23.0870   -29.5400     1.0960 nh         1 QS0      -0.812400
     33 H1         -26.0400   -29.6410     1.0030 h1         1 QS0       0.039200
     34 H2         -25.8820   -31.3980     1.1080 h1         1 QS0       0.039200
     35 H3         -26.9870   -30.7280    -1.2350 h1         1 QS0       0.032033
     36 H4         -25.7630   -31.1120    -2.4550 h1         1 QS0       0.032033
     37 H5         -26.0890   -32.2550    -1.1300 h1         1 QS0       0.032033
     38 H6         -21.6690   -30.4440    -0.1900 h1         1 QS0       0.041950
     39 H7         -22.6070   -29.1260    -0.9020 h1         1 QS0       0.041950
     40 H8         -23.1570   -29.0910     3.7630 ha         1 QS0       0.114000
     41 H9         -19.4000   -26.8790     1.4740 ha         1 QS0       0.143000
     42 H10        -16.4260   -23.8170     5.6740 h4         1 QS0       0.019100
     43 H11        -15.4820   -23.4100     3.4170 ha         1 QS0       0.132000
     44 H12        -18.1030   -25.3330    -2.4460 h1         1 QS0       0.055033
     45 H13        -17.1910   -23.9410    -3.0660 h1         1 QS0       0.055033
     46 H14        -16.4470   -25.5540    -3.0450 h1         1 QS0       0.055033
     47 H15        -20.9210   -28.2610     0.1810 ha         1 QS0       0.112000
     48 H16        -18.2610   -25.3530    -0.0360 h4         1 QS0       0.231000
     49 H17        -13.9090   -23.3680     2.1190 ha         1 QS0       0.125000
     50 H18        -12.2050   -22.6400     0.5240 h4         1 QS0       0.018100
     51 H19        -14.4640   -23.6950    -2.7700 h4         1 QS0       0.018100
     52 H20        -22.5370   -27.9160     7.0520 h1         1 QS0       0.041367
     53 H21        -23.6230   -27.8960     5.6380 h1         1 QS0       0.041367
     54 H22        -22.5820   -29.3140     5.9470 h1         1 QS0       0.041367
     55 H23        -24.4380   -29.8980     2.6510 h1         1 QS0       0.041950
     56 H24        -23.7320   -31.3490     1.9650 h1         1 QS0       0.041950
     57 H25        -23.5130   -31.9880    -0.3710 h1         1 QS0       0.039200
     58 H26        -23.4720   -31.0810    -1.8800 h1         1 QS0       0.039200
     59 H27        -19.8200   -26.4210     5.1510 hn         1 QS0       0.525000
@<TRIPOS>BOND
     1     1    24 1   
     2     1    28 1   
     3     1    33 1   
     4     1    34 1   
     5     2    28 1   
     6     2    35 1   
     7     2    36 1   
     8     2    37 1   
     9     3    25 1   
    10     3    32 1   
    11     3    38 1   
    12     3    39 1   
    13     4     5 ar  
    14     4    14 ar  
    15     4    32 1   
    16     5     6 ar  
    17     5    40 1   
    18     6    11 1   
    19     6    13 ar  
    20     7    13 ar  
    21     7    14 ar  
    22     7    41 1   
    23     8     9 ar  
    24     8    27 ar  
    25     8    42 1   
    26     9    10 ar  
    27     9    43 1   
    28    10    16 1   
    29    10    29 ar  
    30    11    23 1   
    31    12    30 1   
    32    12    44 1   
    33    12    45 1   
    34    12    46 1   
    35    13    26 1   
    36    14    47 1   
    37    15    26 1   
    38    15    27 ar  
    39    15    29 ar  
    40    16    17 2   
    41    16    19 1   
    42    17    30 1   
    43    17    48 1   
    44    18    19 ar  
    45    18    22 ar  
    46    18    30 1   
    47    19    20 ar  
    48    20    21 ar  
    49    20    49 1   
    50    21    31 ar  
    51    21    50 1   
    52    22    31 ar  
    53    22    51 1   
    54    23    52 1   
    55    23    53 1   
    56    23    54 1   
    57    24    32 1   
    58    24    55 1   
    59    24    56 1   
    60    25    28 1   
    61    25    57 1   
    62    25    58 1   
    63    26    59 1   
@<TRIPOS>SUBSTRUCTURE
     1 QS0         1 TEMP              0 ****  ****    0 ROOT
