@<TRIPOS>MOLECULE
QS1
   60    63     1     0     0
SMALL
No Charge or Current Charge


@<TRIPOS>ATOM
      1 C4          -6.5980     0.4530     1.3160 ca         1 QS1      -0.111500
      2 C14         -1.2040    -3.4490     1.3250 ca         1 QS1      -0.113000
      3 C5          -7.9010     0.1060     0.9170 ca         1 QS1      -0.071000
      4 C6          -8.3300     0.3650    -0.3980 ca         1 QS1      -0.022000
      5 C11         -0.7800     0.0920    -0.1230 c3         1 QS1       0.143800
      6 C7          -9.6620     0.0110    -0.8080 cg         1 QS1       0.324000
      7 C8          -7.4470     0.9750    -1.3100 ca         1 QS1      -0.071000
      8 C9          -6.1450     1.3210    -0.9080 ca         1 QS1      -0.111500
      9 C10         -3.2360     0.6540     0.0290 c3         1 QS1       0.166800
     10 C12         -1.0030    -1.4210    -0.0220 ca         1 QS1      -0.104300
     11 C13         -1.0120    -2.0600     1.2350 ca         1 QS1      -0.096000
     12 N1         -10.7460    -0.2680    -1.1410 n1         1 QS1      -0.455000
     13 N2          -1.8780     0.8250     0.5900 n7         1 QS1      -0.859400
     14 C3          -5.7090     1.0630     0.4080 ca         1 QS1      -0.053300
     15 C1          -4.0830     2.9690     0.7990 c3         1 QS1      -0.090100
     16 C2          -4.2920     1.4360     0.8520 c3         1 QS1      -0.021400
     17 C15         -1.3890    -4.2110     0.1600 ca         1 QS1      -0.102000
     18 C16         -1.3840    -3.5820    -1.0960 ca         1 QS1      -0.113000
     19 C17         -1.1920    -2.1920    -1.1880 ca         1 QS1      -0.096000
     20 C18          0.6740     0.4690     0.3450 c          1 QS1       0.608100
     21 C19          3.0590    -0.1920    -0.1540 ca         1 QS1       0.479900
     22 N4           3.5730     1.0450    -0.0280 nb         1 QS1      -0.676000
     23 C20          4.9210     1.1610     0.0270 ca         1 QS1       0.369900
     24 C21          5.8100     0.0610    -0.0630 ca         1 QS1      -0.062000
     25 C22          7.2690     0.2240     0.0000 cc         1 QS1      -0.152000
     26 C23          7.8780     1.4350     0.1550 cd         1 QS1      -0.156000
     27 N5           9.2460     1.1380     0.1650 na         1 QS1       0.136800
     28 C24         10.3450     2.1030     0.3070 c3         1 QS1       0.072900
     29 N6           9.5060    -0.2190     0.0210 nd         1 QS1      -0.523800
     30 C25          8.2960    -0.7320    -0.0740 cc         1 QS1       0.252900
     31 C26          5.2480    -1.2210    -0.2260 ca         1 QS1      -0.046000
     32 C27          3.8500    -1.3420    -0.2830 ca         1 QS1      -0.208000
     33 O1           0.8980     1.3280     1.1930 o          1 QS1      -0.526100
     34 H1          -6.2820     0.2450     2.3360 ha         1 QS1       0.120000
     35 H2          -1.2090    -3.9350     2.2990 ha         1 QS1       0.116000
     36 H3          -8.5740    -0.3650     1.6310 ha         1 QS1       0.125500
     37 H4          -0.8110     0.3660    -1.1860 h1         1 QS1       0.038700
     38 H5          -7.7680     1.1810    -2.3290 ha         1 QS1       0.125500
     39 H6          -5.4770     1.7920    -1.6250 ha         1 QS1       0.120000
     40 H7          -3.2640     0.9950    -1.0150 h1         1 QS1       0.035700
     41 H8          -3.5140    -0.4080     0.0350 h1         1 QS1       0.035700
     42 H9          -0.8730    -1.4760     2.1430 ha         1 QS1       0.123000
     43 H10         -1.6500     1.8280     0.5820 hn         1 QS1       0.440000
     44 H12          1.3410    -0.9920    -0.8970 hn         1 QS1       0.159000
     45 H13         -3.1200     3.2530     1.2400 hc         1 QS1       0.040367
     46 H14         -4.1090     3.3370    -0.2340 hc         1 QS1       0.040367
     47 H15         -4.8720     3.4810     1.3630 hc         1 QS1       0.040367
     48 H16         -4.1640     1.1330     1.8990 hc         1 QS1       0.070700
     49 H17         -1.5380    -5.2870     0.2300 ha         1 QS1       0.115000
     50 H18         -1.5290    -4.1710    -1.9990 ha         1 QS1       0.116000
     51 H19         -1.1910    -1.7160    -2.1660 ha         1 QS1       0.123000
     52 H20          5.2940     2.1770     0.1430 h4         1 QS1       0.018100
     53 H21          7.4910     2.4430     0.2560 h4         1 QS1       0.156000
     54 H22         10.9320     1.8590     1.2000 h1         1 QS1       0.058033
     55 H23         10.9910     2.0560    -0.5780 h1         1 QS1       0.058033
     56 H24          9.9390     3.1160     0.4060 h1         1 QS1       0.058033
     57 H25          8.1950    -1.8020    -0.1970 h4         1 QS1       0.037100
     58 H26          5.8740    -2.1050    -0.3130 ha         1 QS1       0.119000
     59 H27          3.3850    -2.3140    -0.4190 ha         1 QS1       0.121000
     60 N3           1.6670    -0.2660    -0.2740 ns         1 QS1      -0.326900
@<TRIPOS>BOND
     1     1     3 ar  
     2     1    14 ar  
     3     1    34 1   
     4     2    11 ar  
     5     2    17 ar  
     6     2    35 1   
     7     3     4 ar  
     8     3    36 1   
     9     4     6 1   
    10     4     7 ar  
    11     5    10 1   
    12     5    13 1   
    13     5    20 1   
    14     5    37 1   
    15     6    12 3   
    16     7     8 ar  
    17     7    38 1   
    18     8    14 ar  
    19     8    39 1   
    20     9    13 1   
    21     9    16 1   
    22     9    40 1   
    23     9    41 1   
    24    10    11 ar  
    25    10    19 ar  
    26    11    42 1   
    27    13    43 1   
    28    14    16 1   
    29    15    16 1   
    30    15    45 1   
    31    15    46 1   
    32    15    47 1   
    33    16    48 1   
    34    17    18 ar  
    35    17    49 1   
    36    18    19 ar  
    37    18    50 1   
    38    19    51 1   
    39    20    33 2   
    40    20    60 1   
    41    21    22 ar  
    42    21    32 ar  
    43    21    60 1   
    44    22    23 ar  
    45    23    24 ar  
    46    23    52 1   
    47    24    25 1   
    48    24    31 ar  
    49    25    26 2   
    50    25    30 1   
    51    26    27 1   
    52    26    53 1   
    53    27    28 1   
    54    27    29 1   
    55    28    54 1   
    56    28    55 1   
    57    28    56 1   
    58    29    30 2   
    59    30    57 1   
    60    31    32 ar  
    61    31    58 1   
    62    32    59 1   
    63    44    60 1   
@<TRIPOS>SUBSTRUCTURE
     1 QS1         1 TEMP              0 ****  ****    0 ROOT
