@<TRIPOS>MOLECULE
QS1
   60    63     1     0     0
SMALL
bcc


@<TRIPOS>ATOM
      1 C4          -6.3770     0.2150     1.0980 ca         1 QS1      -0.129500
      2 C14         -1.1990    -3.1920     1.7980 ca         1 QS1      -0.131000
      3 C5          -7.6460    -0.1410     0.6750 ca         1 QS1      -0.089000
      4 C6          -8.1400     0.3800    -0.5200 ca         1 QS1      -0.022000
      5 C11         -0.8670     0.0000    -0.2280 c3         1 QS1       0.143800
      6 C7          -9.4470     0.0240    -0.9660 cg         1 QS1       0.234800
      7 C8          -7.3610     1.2530    -1.2800 ca         1 QS1      -0.089000
      8 C9          -6.0960     1.5970    -0.8400 ca         1 QS1      -0.129500
      9 C10         -3.1810     0.6320    -0.0150 c3         1 QS1       0.166800
     10 C12         -1.0230    -1.4640     0.1260 ca         1 QS1      -0.104300
     11 C13         -1.0860    -1.8520     1.4630 ca         1 QS1      -0.114000
     12 N1         -10.5030    -0.2640    -1.3270 n1         1 QS1      -0.365800
     13 N2          -1.8310     0.8080     0.4770 n7         1 QS1      -0.804200
     14 C3          -5.5840     1.0860     0.3540 ca         1 QS1      -0.053300
     15 C1          -3.9250     2.9350     0.7720 c3         1 QS1      -0.090100
     16 C2          -4.1910     1.4310     0.8180 c3         1 QS1      -0.021400
     17 C15         -1.2550    -4.1610     0.8000 ca         1 QS1      -0.120000
     18 C16         -1.2020    -3.7800    -0.5320 ca         1 QS1      -0.131000
     19 C17         -1.0910    -2.4340    -0.8660 ca         1 QS1      -0.114000
     20 C18          0.5480     0.4910     0.1210 c          1 QS1       0.675100
     21 C19          2.9100    -0.1160    -0.3750 ca         1 QS1       0.545200
     22 N4           3.4250     1.0140     0.0710 nb         1 QS1      -0.676000
     23 C20          4.7460     1.1330     0.1110 ca         1 QS1       0.435200
     24 C21          5.6420     0.1460    -0.2860 ca         1 QS1      -0.127300
     25 C22          7.0850     0.3360    -0.2100 cc         1 QS1      -0.217300
     26 C23          7.7880     1.3080     0.4790 cd         1 QS1      -0.123300
     27 N5           9.0910     1.0850     0.2540 na         1 QS1       0.115400
     28 C24         10.2100     1.8410     0.7640 c3         1 QS1       0.043600
     29 N6           9.2980     0.0350    -0.5330 nd         1 QS1      -0.523800
     30 C25          8.0980    -0.4300    -0.8210 cc         1 QS1       0.318200
     31 C26          5.0740    -1.0370    -0.7680 ca         1 QS1      -0.064000
     32 C27          3.7060    -1.1770    -0.8180 ca         1 QS1      -0.291300
     33 O1           0.7400     1.4740     0.7990 o          1 QS1      -0.526100
     34 H1          -5.9980    -0.1920     2.0270 ha         1 QS1       0.138000
     35 H2          -1.2460    -3.4840     2.8390 ha         1 QS1       0.134000
     36 H3          -8.2500    -0.8160     1.2660 ha         1 QS1       0.143500
     37 H4          -0.9580     0.0920    -1.3250 h1         1 QS1       0.038700
     38 H5          -7.7440     1.6580    -2.2060 ha         1 QS1       0.143500
     39 H6          -5.5060     2.2780    -1.4390 ha         1 QS1       0.138000
     40 H7          -3.2840     0.9080    -1.0770 h1         1 QS1       0.035700
     41 H8          -3.4390    -0.4280     0.0540 h1         1 QS1       0.035700
     42 H9          -1.0550    -1.0990     2.2400 ha         1 QS1       0.141000
     43 H10         -1.5590     1.7810     0.4100 hn         1 QS1       0.384800
     44 H12          1.2220    -1.1070    -0.9180 hn         1 QS1       0.325500
     45 H13         -2.9710     3.1800     1.2380 hc         1 QS1       0.040367
     46 H14         -3.8990     3.3110    -0.2520 hc         1 QS1       0.040367
     47 H15         -4.6970     3.4850     1.3120 hc         1 QS1       0.040367
     48 H16         -4.0910     1.0950     1.8540 hc         1 QS1       0.070700
     49 H17         -1.3450    -5.2070     1.0630 ha         1 QS1       0.133000
     50 H18         -1.2550    -4.5260    -1.3140 ha         1 QS1       0.134000
     51 H19         -1.0650    -2.1400    -1.9090 ha         1 QS1       0.141000
     52 H20          5.1150     2.0860     0.4760 h4         1 QS1       0.018100
     53 H21          7.4560     2.1200     1.1060 h4         1 QS1       0.174000
     54 H22         10.8610     1.1990     1.3540 h1         1 QS1       0.058033
     55 H23         10.7800     2.2720    -0.0570 h1         1 QS1       0.058033
     56 H24          9.8370     2.6430     1.3930 h1         1 QS1       0.058033
     57 H25          7.9910    -1.2920    -1.4620 h4         1 QS1       0.037100
     58 H26          5.7000    -1.8580    -1.0970 ha         1 QS1       0.137000
     59 H27          3.2600    -2.0920    -1.1850 ha         1 QS1       0.139000
     60 N3           1.5280    -0.2730    -0.4370 ns         1 QS1      -0.560400
@<TRIPOS>BOND
     1     1     3 ar  
     2     1    14 ar  
     3     1    34 1   
     4     2    11 ar  
     5     2    17 ar  
     6     2    35 1   
     7     3     4 ar  
     8     3    36 1   
     9     4     6 1   
    10     4     7 ar  
    11     5    10 1   
    12     5    13 1   
    13     5    20 1   
    14     5    37 1   
    15     6    12 3   
    16     7     8 ar  
    17     7    38 1   
    18     8    14 ar  
    19     8    39 1   
    20     9    13 1   
    21     9    16 1   
    22     9    40 1   
    23     9    41 1   
    24    10    11 ar  
    25    10    19 ar  
    26    11    42 1   
    27    13    43 1   
    28    14    16 1   
    29    15    16 1   
    30    15    45 1   
    31    15    46 1   
    32    15    47 1   
    33    16    48 1   
    34    17    18 ar  
    35    17    49 1   
    36    18    19 ar  
    37    18    50 1   
    38    19    51 1   
    39    20    33 2   
    40    20    60 1   
    41    21    22 ar  
    42    21    32 ar  
    43    21    60 1   
    44    22    23 ar  
    45    23    24 ar  
    46    23    52 1   
    47    24    25 1   
    48    24    31 ar  
    49    25    26 2   
    50    25    30 1   
    51    26    27 1   
    52    26    53 1   
    53    27    28 1   
    54    27    29 1   
    55    28    54 1   
    56    28    55 1   
    57    28    56 1   
    58    29    30 2   
    59    30    57 1   
    60    31    32 ar  
    61    31    58 1   
    62    32    59 1   
    63    44    60 1   
@<TRIPOS>SUBSTRUCTURE
     1 QS1         1 TEMP              0 ****  ****    0 ROOT
