@<TRIPOS>MOLECULE
QS3
   44    48     1     0     0
SMALL
No Charge or Current Charge


@<TRIPOS>ATOM
      1 N1         -20.1880     5.4890    27.1560 n          1 QS3      -0.219000
      2 C4         -22.5220     7.1100    29.1370 c6         1 QS3      -0.112400
      3 C5         -22.2230     7.5680    30.5740 c6         1 QS3       0.158600
      4 C6         -22.3780     5.2430    31.2830 ca         1 QS3       0.168100
      5 C7         -22.5390     4.3410    32.3470 ca         1 QS3      -0.137000
      6 C8         -22.2460     2.9790    32.1720 ca         1 QS3      -0.054000
      7 C10        -21.6390     3.4170    29.8560 ca         1 QS3      -0.046000
      8 C13        -18.4140     4.2060    26.0310 ca         1 QS3       0.351900
      9 C15        -17.0410     6.4840    25.3370 ca         1 QS3      -0.095000
     10 C17        -16.7820     8.9050    25.2510 ca         1 QS3      -0.110000
     11 C20        -18.2560     6.6300    26.0420 ca         1 QS3       0.005000
     12 C9         -21.7900     2.5210    30.9270 ca         1 QS3       0.084000
     13 C11        -21.9460     4.7900    30.0110 ca         1 QS3      -0.171300
     14 O2         -22.6690     6.5720    31.5140 os         1 QS3      -0.342100
     15 C3         -21.7920     5.7750    28.8400 c5         1 QS3       0.100700
     16 N          -22.3570     5.1250    27.6390 n          1 QS3      -0.421800
     17 C          -23.7420     4.6450    27.4480 c3         1 QS3       0.107300
     18 C2         -20.2840     5.9770    28.4650 c          1 QS3       0.566000
     19 O1         -19.3620     6.4230    29.1380 o          1 QS3      -0.481000
     20 C1         -21.3800     4.9770    26.6640 c          1 QS3       0.619000
     21 O          -21.5460     4.4720    25.5640 o          1 QS3      -0.523000
     22 C12        -18.9530     5.4540    26.4110 ca         1 QS3      -0.076000
     23 C19        -18.7360     7.9270    26.3290 ca         1 QS3      -0.098000
     24 C18        -17.9980     9.0580    25.9370 ca         1 QS3      -0.085000
     25 C16        -16.3040     7.6200    24.9470 ca         1 QS3      -0.077000
     26 C14        -16.5800     5.1910    25.0220 ca         1 QS3       0.371900
     27 N2         -17.2510     4.0650    25.3550 nb         1 QS3      -0.655000
     28 H1         -22.2230     7.8820    28.4160 hc         1 QS3       0.070700
     29 H2         -23.6080     6.9860    29.0300 hc         1 QS3       0.070700
     30 H3         -21.1430     7.7270    30.7080 h1         1 QS3       0.075200
     31 H4         -22.7340     8.5180    30.7900 h1         1 QS3       0.075200
     32 H5         -22.8840     4.7020    33.3120 ha         1 QS3       0.137000
     33 H6         -22.3660     2.2820    32.9980 ha         1 QS3       0.135000
     34 H7         -21.2860     3.0320    28.9020 ha         1 QS3       0.135000
     35 H8         -18.9260     3.2810    26.2950 h4         1 QS3       0.030100
     36 H9         -16.2150     9.7820    24.9490 ha         1 QS3       0.119000
     37 H10        -24.2950     4.7050    28.3930 h1         1 QS3       0.052367
     38 H11        -24.2470     5.2630    26.6960 h1         1 QS3       0.052367
     39 H12        -23.7300     3.6010    27.1100 h1         1 QS3       0.052367
     40 H13        -19.6790     8.0760    26.8460 ha         1 QS3       0.116000
     41 H14        -18.3720    10.0540    26.1630 ha         1 QS3       0.115000
     42 H15        -15.3660     7.5090    24.4070 ha         1 QS3       0.120000
     43 H16        -15.6470     5.0500    24.4770 h4         1 QS3       0.023100
     44 Cl         -21.4110     0.8180    30.7040 cl         1 QS3      -0.202000
@<TRIPOS>BOND
     1     1    18 1   
     2     1    20 1   
     3     1    22 1   
     4     2     3 1   
     5     2    15 1   
     6     2    28 1   
     7     2    29 1   
     8     3    14 1   
     9     3    30 1   
    10     3    31 1   
    11     4     5 ar  
    12     4    13 ar  
    13     4    14 1   
    14     5     6 ar  
    15     5    32 1   
    16     6    12 ar  
    17     6    33 1   
    18     7    12 ar  
    19     7    13 ar  
    20     7    34 1   
    21     8    22 ar  
    22     8    27 ar  
    23     8    35 1   
    24     9    11 ar  
    25     9    25 ar  
    26     9    26 ar  
    27    10    24 ar  
    28    10    25 ar  
    29    10    36 1   
    30    11    22 ar  
    31    11    23 ar  
    32    12    44 1   
    33    13    15 1   
    34    15    16 1   
    35    15    18 1   
    36    16    17 1   
    37    16    20 1   
    38    17    37 1   
    39    17    38 1   
    40    17    39 1   
    41    18    19 2   
    42    20    21 2   
    43    23    24 ar  
    44    23    40 1   
    45    24    41 1   
    46    25    42 1   
    47    26    27 ar  
    48    26    43 1   
@<TRIPOS>SUBSTRUCTURE
     1 QS3         1 TEMP              0 ****  ****    0 ROOT
