@<TRIPOS>MOLECULE
QS3
   44    48     1     0     0
SMALL
abcg2


@<TRIPOS>ATOM
      1 N1         -20.0790     5.4510    27.2560 n          1 QS3      -0.219000
      2 C4         -22.3670     7.0510    29.1950 c6         1 QS3      -0.112400
      3 C5         -22.0190     7.4670    30.6070 c6         1 QS3       0.158600
      4 C6         -22.3270     5.2020    31.2900 ca         1 QS3       0.168100
      5 C7         -22.5380     4.3070    32.3420 ca         1 QS3      -0.137000
      6 C8         -22.3950     2.9460    32.1480 ca         1 QS3      -0.054000
      7 C10        -21.8270     3.3460    29.8380 ca         1 QS3      -0.046000
      8 C13        -18.1590     4.2520    26.4290 ca         1 QS3       0.351900
      9 C15        -17.0390     6.5230    25.3820 ca         1 QS3      -0.095000
     10 C17        -17.0590     8.8930    24.9340 ca         1 QS3      -0.110000
     11 C20        -18.2910     6.6340    26.0490 ca         1 QS3       0.005000
     12 C9         -22.0340     2.4740    30.8900 ca         1 QS3       0.084000
     13 C11        -21.9750     4.7200    30.0240 ca         1 QS3      -0.171300
     14 O2         -22.5090     6.5180    31.5710 os         1 QS3      -0.342100
     15 C3         -21.7560     5.6770    28.8660 c5         1 QS3       0.100700
     16 N          -22.2580     5.1520    27.6000 n          1 QS3      -0.421800
     17 C          -23.6570     4.8670    27.3500 c3         1 QS3       0.107300
     18 C2         -20.2530     5.8170    28.5650 c          1 QS3       0.566000
     19 O1         -19.3910     6.1870    29.3300 o          1 QS3      -0.481000
     20 C1         -21.3030     5.0580    26.6510 c          1 QS3       0.619000
     21 O          -21.4120     4.7060    25.4930 o          1 QS3      -0.523000
     22 C12        -18.8310     5.4350    26.5750 ca         1 QS3      -0.076000
     23 C19        -18.9130     7.8990    26.1420 ca         1 QS3      -0.098000
     24 C18        -18.3040     9.0010    25.5940 ca         1 QS3      -0.085000
     25 C16        -16.4370     7.6760    24.8290 ca         1 QS3      -0.077000
     26 C14        -16.4410     5.2430    25.2920 ca         1 QS3       0.371900
     27 N2         -16.9680     4.1460    25.7890 nb         1 QS3      -0.655000
     28 H1         -22.0110     7.7990    28.4860 hc         1 QS3       0.070700
     29 H2         -23.4510     6.9790    29.0950 hc         1 QS3       0.070700
     30 H3         -20.9390     7.5640    30.7350 h1         1 QS3       0.075200
     31 H4         -22.4950     8.4110    30.8620 h1         1 QS3       0.075200
     32 H5         -22.8150     4.7000    33.3110 ha         1 QS3       0.137000
     33 H6         -22.5580     2.2570    32.9660 ha         1 QS3       0.135000
     34 H7         -21.5610     2.9630    28.8620 ha         1 QS3       0.135000
     35 H8         -18.5790     3.3390    26.8350 h4         1 QS3       0.030100
     36 H9         -16.6020     9.7780    24.5110 ha         1 QS3       0.119000
     37 H10        -24.0780     4.3430    28.2070 h1         1 QS3       0.052367
     38 H11        -24.2280     5.7810    27.1720 h1         1 QS3       0.052367
     39 H12        -23.7270     4.2280    26.4730 h1         1 QS3       0.052367
     40 H13        -19.8670     7.9930    26.6420 ha         1 QS3       0.116000
     41 H14        -18.7820     9.9690    25.6660 ha         1 QS3       0.115000
     42 H15        -15.4840     7.5790    24.3230 ha         1 QS3       0.120000
     43 H16        -15.4860     5.1480    24.7820 h4         1 QS3       0.023100
     44 CL         -21.8450     0.7510    30.6340 cl         1 QS3      -0.202000
@<TRIPOS>BOND
     1     1    18 1   
     2     1    20 1   
     3     1    22 1   
     4     2     3 1   
     5     2    15 1   
     6     2    28 1   
     7     2    29 1   
     8     3    14 1   
     9     3    30 1   
    10     3    31 1   
    11     4     5 ar  
    12     4    13 ar  
    13     4    14 1   
    14     5     6 ar  
    15     5    32 1   
    16     6    12 ar  
    17     6    33 1   
    18     7    12 ar  
    19     7    13 ar  
    20     7    34 1   
    21     8    22 ar  
    22     8    27 ar  
    23     8    35 1   
    24     9    11 ar  
    25     9    25 ar  
    26     9    26 ar  
    27    10    24 ar  
    28    10    25 ar  
    29    10    36 1   
    30    11    22 ar  
    31    11    23 ar  
    32    12    44 1   
    33    13    15 1   
    34    15    16 1   
    35    15    18 1   
    36    16    17 1   
    37    16    20 1   
    38    17    37 1   
    39    17    38 1   
    40    17    39 1   
    41    18    19 2   
    42    20    21 2   
    43    23    24 ar  
    44    23    40 1   
    45    24    41 1   
    46    25    42 1   
    47    26    27 ar  
    48    26    43 1   
@<TRIPOS>SUBSTRUCTURE
     1 QS3         1 TEMP              0 ****  ****    0 ROOT
