@<TRIPOS>MOLECULE
QS4
   42    44     1     0     0
SMALL
abcg2


@<TRIPOS>ATOM
      1 C4           5.1600     0.9040    -0.1550 c6         1 QS4      -0.074400
      2 C14         -5.2390     1.2770    -1.0300 ca         1 QS4      -0.093000
      3 C5           4.0160     1.9090    -0.1480 c6         1 QS4      -0.074400
      4 C6           2.7910     1.3280     0.5410 c6         1 QS4       0.181800
      5 C8          -0.0530     0.3030    -0.3160 c          1 QS4       0.601300
      6 C9          -1.4090    -0.0710     0.0580 cc         1 QS4      -0.238400
      7 C10         -1.8410    -1.0730     0.9220 cd         1 QS4      -0.004300
      8 C12         -3.6950    -0.1020     0.1160 ca         1 QS4      -0.063200
      9 C13         -5.0180     0.2350    -0.1480 ca         1 QS4      -0.128000
     10 N1           2.3970     0.0730    -0.0750 n3         1 QS4      -0.720600
     11 N2          -3.1910    -1.0740     0.9410 na         1 QS4      -0.210700
     12 C3           4.6860    -0.4230    -0.7380 c6         1 QS4      -0.068400
     13 C1           3.7550    -1.4820     1.3730 c3         1 QS4      -0.125100
     14 C2           3.4380    -0.9530    -0.0300 c6         1 QS4       0.193500
     15 O1           0.1430     1.1580    -1.1620 o          1 QS4      -0.521100
     16 C15         -4.1660     1.9550    -1.6240 ca         1 QS4      -0.137000
     17 C16         -2.8540     1.6090    -1.3560 ca         1 QS4      -0.051000
     18 C17         -2.5990     0.5580    -0.4670 ca         1 QS4      -0.051800
     19 H1           6.0050     1.2860    -0.7320 hc         1 QS4       0.036200
     20 H2           5.5270     0.7590     0.8660 hc         1 QS4       0.036200
     21 H4           4.3120     2.8330     0.3550 hc         1 QS4       0.048200
     22 H5           3.7510     2.1740    -1.1760 hc         1 QS4       0.048200
     23 H6           2.9960     1.2130     1.6190 h1         1 QS4       0.031200
     24 H7           1.9630     2.0330     0.4620 h1         1 QS4       0.031200
     25 H8          -0.4570    -1.5790     2.4790 hc         1 QS4       0.054367
     26 H9          -1.8010    -2.6990     2.3020 hc         1 QS4       0.054367
     27 H10         -0.4830    -2.7180     1.1400 hc         1 QS4       0.054367
     28 H13         -5.8380    -0.2950     0.3170 ha         1 QS4       0.112000
     29 H15         -3.7490    -1.7120     1.4870 hn         1 QS4       0.348000
     30 H16          4.4510    -0.2840    -1.7970 hc         1 QS4       0.046200
     31 H17          5.4790    -1.1730    -0.6860 hc         1 QS4       0.046200
     32 H18          2.8670    -1.8980     1.8530 hc         1 QS4       0.034033
     33 H19          4.4950    -2.2820     1.3150 hc         1 QS4       0.034033
     34 H20          4.1540    -0.7120     2.0330 hc         1 QS4       0.034033
     35 H21          3.0660    -1.7980    -0.6190 h1         1 QS4       0.050700
     36 H22         -4.3690     2.7700    -2.3070 ha         1 QS4       0.113000
     37 H23         -2.0450     2.1470    -1.8260 ha         1 QS4       0.139000
     38 C7           1.1140    -0.3930     0.3720 c3         1 QS4       0.086800
     39 H3          -6.2540     1.5730    -1.2620 ha         1 QS4       0.111000
     40 C11         -1.1060    -2.0670     1.7520 c3         1 QS4      -0.048900
     41 H11          0.9760    -0.3040     1.4620 h1         1 QS4       0.042200
     42 H12          1.0270    -1.4620     0.1530 h1         1 QS4       0.042200
@<TRIPOS>BOND
     1     1     3 1   
     2     1    12 1   
     3     1    19 1   
     4     1    20 1   
     5     2     9 ar  
     6     2    16 ar  
     7     2    39 1   
     8     3     4 1   
     9     3    21 1   
    10     3    22 1   
    11     4    10 1   
    12     4    23 1   
    13     4    24 1   
    14     5     6 1   
    15     5    15 2   
    16     5    38 1   
    17     6     7 2   
    18     6    18 1   
    19     7    11 1   
    20     7    40 1   
    21     8     9 ar  
    22     8    11 1   
    23     8    18 ar  
    24     9    28 1   
    25    10    14 1   
    26    10    38 1   
    27    11    29 1   
    28    12    14 1   
    29    12    30 1   
    30    12    31 1   
    31    13    14 1   
    32    13    32 1   
    33    13    33 1   
    34    13    34 1   
    35    14    35 1   
    36    16    17 ar  
    37    16    36 1   
    38    17    18 ar  
    39    17    37 1   
    40    25    40 1   
    41    26    40 1   
    42    27    40 1   
    43    38    41 1   
    44    38    42 1   
@<TRIPOS>SUBSTRUCTURE
     1 QS4         1 TEMP              0 ****  ****    0 ROOT
