@<TRIPOS>MOLECULE
QS4
   42    44     1     0     0
SMALL
No Charge or Current Charge


@<TRIPOS>ATOM
      1 C4           5.3120     0.8950     0.0190 c6         1 QS4      -0.074400
      2 C14         -5.4010     1.3330    -0.8550 ca         1 QS4      -0.093000
      3 C5           4.1680     1.9100    -0.2050 c6         1 QS4      -0.074400
      4 C6           2.8190     1.3700     0.3310 c6         1 QS4       0.181800
      5 C8          -0.1380     0.3190    -0.4880 c          1 QS4       0.601300
      6 C9          -1.5130    -0.0720    -0.0290 cc         1 QS4      -0.238400
      7 C10         -1.8750    -1.0960     0.8630 cd         1 QS4      -0.004300
      8 C12         -3.7680    -0.0980     0.1990 ca         1 QS4      -0.063200
      9 C13         -5.1100     0.2650     0.0170 ca         1 QS4      -0.128000
     10 N1           2.4880     0.0360    -0.2570 n3         1 QS4      -0.720600
     11 N2          -3.2810    -1.1060     1.0030 na         1 QS4      -0.210700
     12 C3           4.9190    -0.4850    -0.5620 c6         1 QS4      -0.068400
     13 C1           3.6660    -1.4330     1.4810 c3         1 QS4      -0.125100
     14 C2           3.5540    -0.9860    -0.0100 c6         1 QS4       0.193500
     15 O1           0.0160     1.2190    -1.3090 o          1 QS4      -0.521100
     16 C15         -4.3550     2.0100    -1.5200 ca         1 QS4      -0.137000
     17 C16         -3.0120     1.6240    -1.3180 ca         1 QS4      -0.051000
     18 C17         -2.7520     0.5530    -0.4430 ca         1 QS4      -0.051800
     19 H1           6.2330     1.2560    -0.4590 hc         1 QS4       0.036200
     20 H2           5.5310     0.8080     1.0920 hc         1 QS4       0.036200
     21 H4           4.4080     2.8630     0.2860 hc         1 QS4       0.048200
     22 H5           4.0710     2.1260    -1.2770 hc         1 QS4       0.048200
     23 H6           2.8640     1.3080     1.4280 h1         1 QS4       0.031200
     24 H7           2.0370     2.1040     0.0900 h1         1 QS4       0.031200
     25 H8          -0.4050    -1.6280     2.3650 hc         1 QS4       0.054367
     26 H9          -1.6850    -2.8170     2.1600 hc         1 QS4       0.054367
     27 H10         -0.4210    -2.7040     0.9440 hc         1 QS4       0.054367
     28 H13         -5.9080    -0.2630     0.5350 ha         1 QS4       0.112000
     29 H15         -3.8250    -1.7380     1.5810 hn         1 QS4       0.348000
     30 H16          4.8570    -0.4120    -1.6560 hc         1 QS4       0.046200
     31 H17          5.7070    -1.2200    -0.3510 hc         1 QS4       0.046200
     32 H18          2.7390    -1.9010     1.8310 hc         1 QS4       0.034033
     33 H19          4.4630    -2.1750     1.6040 hc         1 QS4       0.034033
     34 H20          3.8910    -0.5970     2.1530 hc         1 QS4       0.034033
     35 H21          3.3040    -1.8950    -0.5780 h1         1 QS4       0.050700
     36 H22         -4.5840     2.8350    -2.1910 ha         1 QS4       0.113000
     37 H23         -2.2150     2.1510    -1.8330 ha         1 QS4       0.139000
     38 C7           1.1030    -0.4390     0.0890 c3         1 QS4       0.086800
     39 H3          -6.4340     1.6370    -1.0150 ha         1 QS4       0.111000
     40 C11         -1.0460    -2.1090     1.6180 c3         1 QS4      -0.048900
     41 H11          0.9930    -0.4290     1.1790 h1         1 QS4       0.042200
     42 H12          0.9910    -1.4770    -0.2460 h1         1 QS4       0.042200
@<TRIPOS>BOND
     1     1     3 1   
     2     1    12 1   
     3     1    19 1   
     4     1    20 1   
     5     2     9 ar  
     6     2    16 ar  
     7     2    39 1   
     8     3     4 1   
     9     3    21 1   
    10     3    22 1   
    11     4    10 1   
    12     4    23 1   
    13     4    24 1   
    14     5     6 1   
    15     5    15 2   
    16     5    38 1   
    17     6     7 2   
    18     6    18 1   
    19     7    11 1   
    20     7    40 1   
    21     8     9 ar  
    22     8    11 1   
    23     8    18 ar  
    24     9    28 1   
    25    10    14 1   
    26    10    38 1   
    27    11    29 1   
    28    12    14 1   
    29    12    30 1   
    30    12    31 1   
    31    13    14 1   
    32    13    32 1   
    33    13    33 1   
    34    13    34 1   
    35    14    35 1   
    36    16    17 ar  
    37    16    36 1   
    38    17    18 ar  
    39    17    37 1   
    40    25    40 1   
    41    26    40 1   
    42    27    40 1   
    43    38    41 1   
    44    38    42 1   
@<TRIPOS>SUBSTRUCTURE
     1 QS4         1 TEMP              0 ****  ****    0 ROOT
