@<TRIPOS>MOLECULE
QS5
   61    64     1     0     0
SMALL
bcc


@<TRIPOS>ATOM
      1 CAY          9.1140     1.1410    -0.2890 c3         1 QS5      -0.130400
      2 CAX          8.1480     0.0290    -0.4240 cc         1 QS5       0.281000
      3 OAZ          6.8420     0.3060    -0.2480 os         1 QS5      -0.337800
      4 CAW          8.2970    -1.2940    -0.7100 cd         1 QS5      -0.285300
      5 CAV          6.9960    -1.8600    -0.7080 cd         1 QS5      -0.169300
      6 CAU          6.1430    -0.8410    -0.4210 cc         1 QS5       0.150200
      7 CAS          4.6840    -0.8400    -0.3000 c          1 QS5       0.617600
      8 OAT          4.0540    -1.8730    -0.4580 o          1 QS5      -0.571100
      9 NAR          4.1320     0.3690    -0.0130 ns         1 QS5      -0.462100
     10 CAQ          2.7890     0.7060     0.1290 ca         1 QS5       0.096600
     11 CBA          2.5090     2.0500     0.4030 ca         1 QS5      -0.181500
     12 CBB          1.2090     2.4870     0.5430 ca         1 QS5      -0.061500
     13 CAP          1.7260    -0.1900     0.0070 ca         1 QS5      -0.181500
     14 CAO          0.4250     0.2630     0.1650 ca         1 QS5      -0.061500
     15 CAN          0.1420     1.5970     0.4410 ca         1 QS5      -0.182600
     16 CAL         -1.2480     2.1250     0.5600 c          1 QS5       0.686700
     17 OAM         -1.5010     3.2920     0.2870 o          1 QS5      -0.612100
     18 NAK         -2.1740     1.2460     0.9800 ns         1 QS5      -0.566900
     19 CAJ         -3.5950     1.4920     0.9820 c3         1 QS5       0.106000
     20 CAI         -4.3260     0.7450    -0.1590 c6         1 QS5      -0.008700
     21 CBC         -3.8950     1.2790    -1.5320 c6         1 QS5      -0.103400
     22 CBD         -4.4040     2.6860    -1.8020 c6         1 QS5       0.128400
     23 OBE         -5.8060     2.7750    -1.6800 os         1 QS5      -0.402600
     24 CBF         -6.2390     2.4120    -0.3890 c6         1 QS5       0.128400
     25 CBG         -5.8410     0.9870    -0.0310 c6         1 QS5      -0.103400
     26 CAF         -4.0090    -0.7380    -0.0070 ca         1 QS5      -0.114300
     27 CAE         -4.5560    -1.4730     1.0510 ca         1 QS5      -0.094500
     28 CAD         -4.2530    -2.8060     1.2480 ca         1 QS5      -0.190000
     29 CAC         -3.3710    -3.4630     0.3870 ca         1 QS5       0.140100
     30 OAB         -3.1320    -4.7630     0.6480 os         1 QS5      -0.317900
     31 CAA         -2.2560    -5.4690    -0.2080 c3         1 QS5       0.123700
     32 CAH         -2.8050    -2.7510    -0.6640 ca         1 QS5      -0.190000
     33 CAG         -3.1270    -1.4090    -0.8450 ca         1 QS5      -0.094500
     34 HAY1         8.9170     1.9310    -1.0160 hc         1 QS5       0.060033
     35 HAY2         9.0750     1.5880     0.7060 hc         1 QS5       0.060033
     36 HAY3        10.1230     0.7700    -0.4540 hc         1 QS5       0.060033
     37 HAW          9.2300    -1.7990    -0.9020 ha         1 QS5       0.166000
     38 HAV          6.7260    -2.8860    -0.8960 ha         1 QS5       0.177000
     39 HAR          4.7690     1.1450     0.0940 hn         1 QS5       0.333500
     40 HBA          3.3220     2.7600     0.4970 ha         1 QS5       0.150000
     41 HAP          1.8940    -1.2300    -0.2170 ha         1 QS5       0.150000
     42 HBB          1.0240     3.5350     0.7400 ha         1 QS5       0.144000
     43 HAO         -0.3710    -0.4600     0.0340 ha         1 QS5       0.144000
     44 HAK         -1.8750     0.3310     1.2740 hn         1 QS5       0.319500
     45 HAJ1        -4.0060     1.1680     1.9410 h1         1 QS5       0.060200
     46 HAJ2        -3.7530     2.5680     0.9230 h1         1 QS5       0.060200
     47 HBC1        -2.8080     1.2750    -1.6410 hc         1 QS5       0.052950
     48 HBC2        -4.2860     0.6140    -2.3090 hc         1 QS5       0.052950
     49 HBG1        -6.3650     0.2930    -0.6950 hc         1 QS5       0.052950
     50 HBG2        -6.1920     0.7770     0.9830 hc         1 QS5       0.052950
     51 HBD1        -3.9120     3.4070    -1.1350 h1         1 QS5       0.049450
     52 HBD2        -4.1540     2.9760    -2.8240 h1         1 QS5       0.049450
     53 HBF1        -5.8490     3.1190     0.3570 h1         1 QS5       0.049450
     54 HBF2        -7.3270     2.5060    -0.3770 h1         1 QS5       0.049450
     55 HAE         -5.2370    -1.0000     1.7480 ha         1 QS5       0.132000
     56 HAG         -2.6610    -0.8950    -1.6750 ha         1 QS5       0.132000
     57 HAD         -4.6970    -3.3490     2.0730 ha         1 QS5       0.141500
     58 HAH         -2.1110    -3.2150    -1.3520 ha         1 QS5       0.141500
     59 HAA1        -2.6230    -5.4920    -1.2380 h1         1 QS5       0.042033
     60 HAA2        -1.2490    -5.0440    -0.2030 h1         1 QS5       0.042033
     61 HAA3        -2.2080    -6.4870     0.1690 h1         1 QS5       0.042033
@<TRIPOS>BOND
     1     1     2 1   
     2     1    34 1   
     3     1    35 1   
     4     1    36 1   
     5     2     3 1   
     6     2     4 2   
     7     3     6 1   
     8     4     5 1   
     9     4    37 1   
    10     5     6 2   
    11     5    38 1   
    12     6     7 1   
    13     7     8 2   
    14     7     9 1   
    15     9    10 1   
    16     9    39 1   
    17    10    11 ar  
    18    10    13 ar  
    19    11    12 ar  
    20    11    40 1   
    21    12    15 ar  
    22    12    42 1   
    23    13    14 ar  
    24    13    41 1   
    25    14    15 ar  
    26    14    43 1   
    27    15    16 1   
    28    16    17 2   
    29    16    18 1   
    30    18    19 1   
    31    18    44 1   
    32    19    20 1   
    33    19    45 1   
    34    19    46 1   
    35    20    21 1   
    36    20    25 1   
    37    20    26 1   
    38    21    22 1   
    39    21    47 1   
    40    21    48 1   
    41    22    23 1   
    42    22    51 1   
    43    22    52 1   
    44    23    24 1   
    45    24    25 1   
    46    24    53 1   
    47    24    54 1   
    48    25    49 1   
    49    25    50 1   
    50    26    27 ar  
    51    26    33 ar  
    52    27    28 ar  
    53    27    55 1   
    54    28    29 ar  
    55    28    57 1   
    56    29    30 1   
    57    29    32 ar  
    58    30    31 1   
    59    31    59 1   
    60    31    60 1   
    61    31    61 1   
    62    32    33 ar  
    63    32    58 1   
    64    33    56 1   
@<TRIPOS>SUBSTRUCTURE
     1 QS5         1 TEMP              0 ****  ****    0 ROOT
