@<TRIPOS>MOLECULE
QS5
   61    64     1     0     0
SMALL
No Charge or Current Charge


@<TRIPOS>ATOM
      1 CAY          9.2340     1.0440    -0.9550 c3         1 QS5      -0.130400
      2 CAX          8.2770    -0.0150    -0.5000 cc         1 QS5       0.171300
      3 OAZ          6.9450     0.3020    -0.3590 os         1 QS5      -0.249000
      4 CAW          8.4770    -1.3280    -0.1730 cd         1 QS5      -0.202000
      5 CAV          7.2230    -1.8650     0.1890 cd         1 QS5      -0.086000
      6 CAU          6.3100    -0.8510     0.0670 cc         1 QS5       0.040500
      7 CAS          4.8520    -0.9430     0.3420 c          1 QS5       0.550600
      8 OAT          4.3010    -1.9730     0.7200 o          1 QS5      -0.571100
      9 NAR          4.2010     0.2640     0.1220 ns         1 QS5      -0.136000
     10 CAQ          2.8410     0.6600     0.2420 ca         1 QS5       0.004000
     11 CBA          2.5240     1.9990    -0.0420 ca         1 QS5      -0.163500
     12 CBB          1.2020     2.4640     0.0540 ca         1 QS5      -0.043500
     13 CAP          1.8010    -0.2140     0.6240 ca         1 QS5      -0.163500
     14 CAO          0.4760     0.2470     0.7220 ca         1 QS5      -0.043500
     15 CAN          0.1580     1.5970     0.4400 ca         1 QS5      -0.182600
     16 CAL         -1.2570     2.1300     0.5290 c          1 QS5       0.619700
     17 OAM         -1.5420     3.2750     0.2060 o          1 QS5      -0.612100
     18 NAK         -2.2140     1.2520     0.9850 ns         1 QS5      -0.499900
     19 CAJ         -3.6580     1.5120     1.0170 c3         1 QS5       0.106000
     20 CAI         -4.4320     0.7960    -0.1480 c6         1 QS5      -0.008700
     21 CBC         -4.0940     1.4720    -1.5260 c6         1 QS5      -0.103400
     22 CBD         -4.6590     2.9090    -1.6470 c6         1 QS5       0.151600
     23 OBE         -6.0840     2.8910    -1.4310 os         1 QS5      -0.449000
     24 CBF         -6.4670     2.4100    -0.1270 c6         1 QS5       0.151600
     25 CBG         -5.9770     0.9520     0.0660 c6         1 QS5      -0.103400
     26 CAF         -4.0400    -0.7140    -0.1050 ca         1 QS5      -0.114300
     27 CAE         -4.4240    -1.5030     1.0050 ca         1 QS5      -0.076500
     28 CAD         -4.0630    -2.8580     1.0900 ca         1 QS5      -0.172000
     29 CAC         -3.3050    -3.4590     0.0780 ca         1 QS5       0.140100
     30 OAB         -2.9780    -4.7920     0.2170 os         1 QS5      -0.341100
     31 CAA         -2.1990    -5.4980    -0.7650 c3         1 QS5       0.146900
     32 CAH         -2.9020    -2.6870    -1.0300 ca         1 QS5      -0.172000
     33 CAG         -3.2620    -1.3300    -1.1180 ca         1 QS5      -0.076500
     34 HAY1         8.9540     1.4190    -1.9460 hc         1 QS5       0.060033
     35 HAY2         9.2370     1.8900    -0.2580 hc         1 QS5       0.060033
     36 HAY3        10.2550     0.6500    -1.0160 hc         1 QS5       0.060033
     37 HAW          9.4270    -1.8530    -0.1910 ha         1 QS5       0.148000
     38 HAV          7.0150    -2.8830     0.5050 ha         1 QS5       0.159000
     39 HAR          4.8170     1.0070    -0.1840 hn         1 QS5       0.167000
     40 HBA          3.3090     2.6910    -0.3410 ha         1 QS5       0.132000
     41 HAP          1.9950    -1.2580     0.8480 ha         1 QS5       0.132000
     42 HBB          0.9930     3.5080    -0.1740 ha         1 QS5       0.126000
     43 HAO         -0.2910    -0.4670     1.0130 ha         1 QS5       0.126000
     44 HAK         -1.9000     0.3220     1.2240 hn         1 QS5       0.319500
     45 HAJ1        -4.0400     1.1400     1.9770 h1         1 QS5       0.060200
     46 HAJ2        -3.8430     2.5930     0.9990 h1         1 QS5       0.060200
     47 HBC1        -3.0100     1.5010    -1.6940 hc         1 QS5       0.052950
     48 HBC2        -4.5200     0.8750    -2.3440 hc         1 QS5       0.052950
     49 HBG1        -6.5120     0.3030    -0.6410 hc         1 QS5       0.052950
     50 HBG2        -6.2730     0.6170     1.0680 hc         1 QS5       0.052950
     51 HBD1        -4.1850     3.5850    -0.9210 h1         1 QS5       0.049450
     52 HBD2        -4.4580     3.3040    -2.6530 h1         1 QS5       0.049450
     53 HBF1        -6.0460     3.0710     0.6450 h1         1 QS5       0.049450
     54 HBF2        -7.5620     2.4490    -0.0420 h1         1 QS5       0.049450
     55 HAE         -4.9980    -1.0700     1.8200 ha         1 QS5       0.114000
     56 HAG         -2.9160    -0.7750    -1.9840 ha         1 QS5       0.114000
     57 HAD         -4.3700    -3.4460     1.9520 ha         1 QS5       0.123500
     58 HAH         -2.3070    -3.1180    -1.8300 ha         1 QS5       0.123500
     59 HAA1        -2.7040    -5.4950    -1.7390 h1         1 QS5       0.042033
     60 HAA2        -1.2080    -5.0400    -0.8790 h1         1 QS5       0.042033
     61 HAA3        -2.0570    -6.5420    -0.4590 h1         1 QS5       0.042033
@<TRIPOS>BOND
     1     1     2 1   
     2     1    34 1   
     3     1    35 1   
     4     1    36 1   
     5     2     3 1   
     6     2     4 2   
     7     3     6 1   
     8     4     5 1   
     9     4    37 1   
    10     5     6 2   
    11     5    38 1   
    12     6     7 1   
    13     7     8 2   
    14     7     9 1   
    15     9    10 1   
    16     9    39 1   
    17    10    11 ar  
    18    10    13 ar  
    19    11    12 ar  
    20    11    40 1   
    21    12    15 ar  
    22    12    42 1   
    23    13    14 ar  
    24    13    41 1   
    25    14    15 ar  
    26    14    43 1   
    27    15    16 1   
    28    16    17 2   
    29    16    18 1   
    30    18    19 1   
    31    18    44 1   
    32    19    20 1   
    33    19    45 1   
    34    19    46 1   
    35    20    21 1   
    36    20    25 1   
    37    20    26 1   
    38    21    22 1   
    39    21    47 1   
    40    21    48 1   
    41    22    23 1   
    42    22    51 1   
    43    22    52 1   
    44    23    24 1   
    45    24    25 1   
    46    24    53 1   
    47    24    54 1   
    48    25    49 1   
    49    25    50 1   
    50    26    27 ar  
    51    26    33 ar  
    52    27    28 ar  
    53    27    55 1   
    54    28    29 ar  
    55    28    57 1   
    56    29    30 1   
    57    29    32 ar  
    58    30    31 1   
    59    31    59 1   
    60    31    60 1   
    61    31    61 1   
    62    32    33 ar  
    63    32    58 1   
    64    33    56 1   
@<TRIPOS>SUBSTRUCTURE
     1 QS5         1 TEMP              0 ****  ****    0 ROOT
