@<TRIPOS>MOLECULE
QS6
   30    32     1     0     0
SMALL
No Charge or Current Charge


@<TRIPOS>ATOM
      1 C16        -45.1660   -30.0730     0.2820 c5         1 QS6      -0.129400
      2 C14        -44.8750   -30.6520     5.8830 ca         1 QS6       0.173900
      3 C12        -46.7600   -29.3590     5.9600 ca         1 QS6       0.147500
      4 C10        -48.5020   -27.9710     5.3270 cc         1 QS6      -0.182100
      5 C02        -46.6570   -29.6640     0.0360 c5         1 QS6       0.154300
      6 C03        -47.4870   -30.5980     0.9790 c5         1 QS6      -0.082400
      7 C04        -46.4400   -31.4580     1.7560 c5         1 QS6      -0.102400
      8 C05        -45.1320   -30.6100     1.7390 c5         1 QS6       0.243500
      9 C07        -45.5320   -29.6530     3.9200 ca         1 QS6       0.429900
     10 C08        -46.6040   -29.0960     4.6250 ca         1 QS6      -0.257800
     11 C09        -47.6920   -28.2320     4.2360 cd         1 QS6      -0.201200
     12 N06        -45.3580   -29.3940     2.5670 nu         1 QS6      -0.916100
     13 N11        -47.8960   -28.6860     6.3850 na         1 QS6      -0.325400
     14 N13        -45.8940   -30.1480     6.6220 nb         1 QS6      -0.234000
     15 N15        -44.6470   -30.4440     4.5620 nb         1 QS6      -0.302000
     16 O01        -46.8820   -28.2880     0.3540 oh         1 QS6      -0.678000
     17 H162       -44.4620   -29.2500     0.1140 hc         1 QS6       0.060200
     18 H161       -44.8760   -30.8690    -0.4130 hc         1 QS6       0.060200
     19 H101       -49.4060   -27.3730     5.4330 h4         1 QS6       0.216000
     20 H021       -46.9270   -29.8430    -1.0150 h1         1 QS6       0.044700
     21 H032       -48.1070   -30.0180     1.6720 hc         1 QS6       0.059200
     22 H031       -48.1760   -31.2320     0.4100 hc         1 QS6       0.059200
     23 H042       -46.7790   -31.7220     2.7640 hc         1 QS6       0.059700
     24 H041       -46.2700   -32.4080     1.2370 hc         1 QS6       0.059700
     25 H051       -44.2200   -31.1760     1.9860 h1         1 QS6       0.088700
     26 H091       -47.8640   -27.8370     3.2350 ha         1 QS6       0.204000
     27 H061       -46.0430   -28.7370     2.1890 hn         1 QS6       0.506000
     28 H111       -48.2380   -28.7140     7.3410 hn         1 QS6       0.360000
     29 H011       -46.5150   -27.7620    -0.3910 ho         1 QS6       0.441000
     30 H141       -44.1650   -31.2910     6.4050 h5         1 QS6       0.042100
@<TRIPOS>BOND
     1     1     5 1   
     2     1     8 1   
     3     1    17 1   
     4     1    18 1   
     5     2    14 ar  
     6     2    15 ar  
     7     2    30 1   
     8     3    10 ar  
     9     3    13 1   
    10     3    14 ar  
    11     4    11 2   
    12     4    13 1   
    13     4    19 1   
    14     5     6 1   
    15     5    16 1   
    16     5    20 1   
    17     6     7 1   
    18     6    21 1   
    19     6    22 1   
    20     7     8 1   
    21     7    23 1   
    22     7    24 1   
    23     8    12 1   
    24     8    25 1   
    25     9    10 ar  
    26     9    12 1   
    27     9    15 ar  
    28    10    11 1   
    29    11    26 1   
    30    12    27 1   
    31    13    28 1   
    32    16    29 1   
@<TRIPOS>SUBSTRUCTURE
     1 QS6         1 TEMP              0 ****  ****    0 ROOT
