@<TRIPOS>MOLECULE
QS6
   30    32     1     0     0
SMALL
abcg2


@<TRIPOS>ATOM
      1 C16        -45.1850   -29.8490     0.3230 c5         1 QS6      -0.129400
      2 C14        -45.3280   -30.8750     5.8650 ca         1 QS6       0.173900
      3 C12        -46.6970   -29.1500     6.1700 ca         1 QS6       0.147500
      4 C10        -48.0260   -27.3740     5.8660 cc         1 QS6      -0.182100
      5 C02        -46.6030   -29.9300    -0.2570 c5         1 QS6       0.154300
      6 C03        -47.2090   -31.2110     0.3540 c5         1 QS6      -0.082400
      7 C04        -46.2040   -31.7090     1.4180 c5         1 QS6      -0.102400
      8 C05        -45.3010   -30.4950     1.7050 c5         1 QS6       0.243500
      9 C07        -45.9790   -29.7290     3.9670 ca         1 QS6       0.429900
     10 C08        -46.7430   -28.8710     4.7930 ca         1 QS6      -0.257800
     11 C09        -47.5950   -27.7340     4.6160 cd         1 QS6      -0.201200
     12 N06        -45.9180   -29.5500     2.6330 nu         1 QS6      -0.916100
     13 N11        -47.4830   -28.2320     6.8030 na         1 QS6      -0.325400
     14 N13        -46.0010   -30.1450     6.7460 nb         1 QS6      -0.234000
     15 N15        -45.2800   -30.7310     4.5330 nb         1 QS6      -0.302000
     16 O01        -47.4110   -28.8130     0.1760 oh         1 QS6      -0.678000
     17 H162       -44.7980   -28.8290     0.3460 hc         1 QS6       0.060200
     18 H161       -44.5110   -30.4540    -0.2880 hc         1 QS6       0.060200
     19 H101       -48.6800   -26.5750     6.1730 h4         1 QS6       0.216000
     20 H021       -46.5950   -29.9540    -1.3480 h1         1 QS6       0.044700
     21 H032       -48.1720   -30.9600     0.7990 hc         1 QS6       0.059200
     22 H031       -47.3900   -31.9650    -0.4110 hc         1 QS6       0.059200
     23 H042       -46.6860   -32.0810     2.3210 hc         1 QS6       0.059700
     24 H041       -45.5870   -32.5140     1.0130 hc         1 QS6       0.059700
     25 H051       -44.3380   -30.7910     2.1150 h1         1 QS6       0.088700
     26 H091       -47.8580   -27.2450     3.6920 ha         1 QS6       0.204000
     27 H061       -46.5710   -28.8980     2.2220 hn         1 QS6       0.506000
     28 H111       -47.6370   -28.1890     7.7980 hn         1 QS6       0.360000
     29 H011       -47.0400   -28.0090    -0.2110 ho         1 QS6       0.441000
     30 H141       -44.7440   -31.6960     6.2680 h5         1 QS6       0.042100
@<TRIPOS>BOND
     1     1     5 1   
     2     1     8 1   
     3     1    17 1   
     4     1    18 1   
     5     2    14 ar  
     6     2    15 ar  
     7     2    30 1   
     8     3    10 ar  
     9     3    13 1   
    10     3    14 ar  
    11     4    11 2   
    12     4    13 1   
    13     4    19 1   
    14     5     6 1   
    15     5    16 1   
    16     5    20 1   
    17     6     7 1   
    18     6    21 1   
    19     6    22 1   
    20     7     8 1   
    21     7    23 1   
    22     7    24 1   
    23     8    12 1   
    24     8    25 1   
    25     9    10 ar  
    26     9    12 1   
    27     9    15 ar  
    28    10    11 1   
    29    11    26 1   
    30    12    27 1   
    31    13    28 1   
    32    16    29 1   
@<TRIPOS>SUBSTRUCTURE
     1 QS6         1 TEMP              0 ****  ****    0 ROOT
