@<TRIPOS>MOLECULE
QS7
   58    61     1     0     0
SMALL
No Charge or Current Charge


@<TRIPOS>ATOM
      1 C4          -1.2560    -0.9640    -0.5510 ca         1 QS7       0.305900
      2 C5          -0.7320    -0.8170     0.7390 ca         1 QS7      -0.296800
      3 C6          -1.5970    -1.0270     1.8250 ca         1 QS7       0.213900
      4 N1          -2.8900    -1.3430     1.6370 nb         1 QS7      -0.239000
      5 N3          -2.5490    -1.2890    -0.7410 nb         1 QS7      -0.313000
      6 CAV          6.1820     3.6280     0.9900 c3         1 QS7       0.147900
      7 CAO          4.5440     1.8260     0.5370 ca         1 QS7       0.191100
      8 CAN          3.2030     1.4720     0.2780 ca         1 QS7       0.060500
      9 ClAS         1.9610     2.7310     0.1930 cl         1 QS7      -0.175000
     10 CAP          5.5350     0.8230     0.6010 ca         1 QS7      -0.279000
     11 CAL          5.1850    -0.5300     0.4040 ca         1 QS7       0.191100
     12 OAT          6.1270    -1.5430     0.4570 os         1 QS7      -0.320600
     13 CAW          7.5200    -1.2950     0.7130 c3         1 QS7       0.147900
     14 CAM          3.8420    -0.8760     0.1450 ca         1 QS7       0.060500
     15 ClAR         3.4010    -2.5740    -0.1020 cl         1 QS7      -0.175000
     16 CAK          2.8470     0.1210     0.0840 ca         1 QS7       0.055200
     17 CAI          1.4590    -0.2430    -0.1910 cc         1 QS7      -0.170400
     18 CAJ          0.6660    -0.4510     0.9150 cd         1 QS7      -0.015200
     19 CAH          0.9430    -0.3800    -1.5750 c          1 QS7       0.584200
     20 OAQ          1.6570    -0.1840    -2.5500 o          1 QS7      -0.521000
     21 NAG         -0.4190    -0.7510    -1.6970 n          1 QS7      -0.362300
     22 CBI         -1.0090    -0.9090    -3.0550 c3         1 QS7       0.082300
     23 C2          -3.3030    -1.4410     0.3580 ca         1 QS7       0.414900
     24 NAX         -4.6360    -1.7440     0.0950 nu         1 QS7      -0.890100
     25 CAY         -5.6290    -0.9870     0.9580 c5         1 QS7       0.173500
     26 CAZ         -6.9240    -1.8790     0.9300 c5         1 QS7       0.138600
     27 OBA         -7.8560    -1.2520     0.0040 os         1 QS7      -0.431000
     28 CBB         -7.1240    -0.3240    -0.8190 c5         1 QS7       0.131600
     29 CBC         -6.1300     0.3000     0.1890 c5         1 QS7       0.048700
     30 NBD         -5.0370     0.9150    -0.6000 ns         1 QS7      -0.501900
     31 CBE         -4.1010     1.6780     0.0650 c          1 QS7       0.604300
     32 OBH         -4.1610     1.9230     1.2620 o          1 QS7      -0.585100
     33 CBF         -2.9630     2.1100    -0.7940 ce         1 QS7      -0.313200
     34 CBG         -1.7640     2.5250    -0.3180 c2         1 QS7      -0.223000
     35 H1          -1.2570    -0.9340     2.8550 h4         1 QS7       0.033100
     36 H2           6.5690     3.1900     1.9200 h1         1 QS7       0.044867
     37 H3           6.8590     3.3670     0.1670 h1         1 QS7       0.044867
     38 H4           6.1890     4.7200     1.1010 h1         1 QS7       0.044867
     39 H5           6.5660     1.0920     0.8000 ha         1 QS7       0.126000
     40 H6           7.9490    -0.6430    -0.0580 h1         1 QS7       0.044867
     41 H7           7.6590    -0.8220     1.6940 h1         1 QS7       0.044867
     42 H8           8.0800    -2.2390     0.7100 h1         1 QS7       0.044867
     43 H9           1.0840    -0.3400     1.9140 ha         1 QS7       0.199000
     44 H10         -0.2580    -0.8070    -3.8470 h1         1 QS7       0.058033
     45 H11         -1.4650    -1.9030    -3.1470 h1         1 QS7       0.058033
     46 H12         -1.7830    -0.1470    -3.2090 h1         1 QS7       0.058033
     47 H13         -4.8210    -1.8500    -0.9000 hn         1 QS7       0.492000
     48 H14         -5.3040    -0.7790     1.9880 h1         1 QS7       0.107700
     49 H15         -6.7250    -2.9110     0.6090 h1         1 QS7       0.056200
     50 H16         -7.3980    -1.9230     1.9190 h1         1 QS7       0.056200
     51 H17         -6.6240    -0.8750    -1.6270 h1         1 QS7       0.056200
     52 H18         -7.8080     0.4130    -1.2600 h1         1 QS7       0.056200
     53 H19         -6.6400     1.0060     0.8610 h1         1 QS7       0.109700
     54 H20         -4.8780     0.7420    -1.5850 hn         1 QS7       0.307500
     55 H21         -3.1080     1.9910    -1.8670 ha         1 QS7       0.178000
     56 H23         -0.9420     2.7880    -0.9860 ha         1 QS7       0.179500
     57 H24         -1.5630     2.6090     0.7520 ha         1 QS7       0.179500
     58 OAU          4.8480     3.1640     0.7220 os         1 QS7      -0.320600
@<TRIPOS>BOND
     1     1     2 ar  
     2     1     5 ar  
     3     1    21 1   
     4     2     3 ar  
     5     2    18 1   
     6     3     4 ar  
     7     3    35 1   
     8     4    23 ar  
     9     5    23 ar  
    10     6    36 1   
    11     6    37 1   
    12     6    38 1   
    13     6    58 1   
    14     7     8 ar  
    15     7    10 ar  
    16     7    58 1   
    17     8     9 1   
    18     8    16 ar  
    19    10    11 ar  
    20    10    39 1   
    21    11    12 1   
    22    11    14 ar  
    23    12    13 1   
    24    13    40 1   
    25    13    41 1   
    26    13    42 1   
    27    14    15 1   
    28    14    16 ar  
    29    16    17 1   
    30    17    18 2   
    31    17    19 1   
    32    18    43 1   
    33    19    20 2   
    34    19    21 1   
    35    21    22 1   
    36    22    44 1   
    37    22    45 1   
    38    22    46 1   
    39    23    24 1   
    40    24    25 1   
    41    24    47 1   
    42    25    26 1   
    43    25    29 1   
    44    25    48 1   
    45    26    27 1   
    46    26    49 1   
    47    26    50 1   
    48    27    28 1   
    49    28    29 1   
    50    28    51 1   
    51    28    52 1   
    52    29    30 1   
    53    29    53 1   
    54    30    31 1   
    55    30    54 1   
    56    31    32 2   
    57    31    33 1   
    58    33    34 2   
    59    33    55 1   
    60    34    56 1   
    61    34    57 1   
@<TRIPOS>SUBSTRUCTURE
     1 QS7         1 TEMP              0 ****  ****    0 ROOT
