@<TRIPOS>MOLECULE
QS7
   58    61     1     0     0
SMALL
bcc


@<TRIPOS>ATOM
      1 C4          -1.1550    -1.1110    -0.5850 ca         1 QS7       0.634200
      2 C5          -0.7710    -0.7240     0.7110 ca         1 QS7      -0.427400
      3 C6          -1.7810    -0.7610     1.6680 ca         1 QS7       0.542200
      4 N1          -3.0170    -1.1100     1.3990 nb         1 QS7      -0.765000
      5 N3          -2.3910    -1.4770    -0.8710 nb         1 QS7      -0.839000
      6 CAV          6.0630     3.6320     0.7580 c3         1 QS7       0.124700
      7 CAO          4.5160     1.8620     0.4470 ca         1 QS7       0.191100
      8 CAN          3.1950     1.4630     0.2310 ca         1 QS7      -0.031100
      9 CLAS         1.9840     2.6830     0.0600 cl         1 QS7      -0.083400
     10 CAP          5.5080     0.8940     0.5660 ca         1 QS7      -0.297000
     11 CAL          5.1910    -0.4580     0.4710 ca         1 QS7       0.191100
     12 OAT          6.0860    -1.4450     0.5690 os         1 QS7      -0.297400
     13 CAW          7.4450    -1.1170     0.8020 c3         1 QS7       0.124700
     14 CAM          3.8640    -0.8310     0.2610 ca         1 QS7      -0.031100
     15 CLAR         3.4790    -2.5100     0.1500 cl         1 QS7      -0.083400
     16 CAK          2.8570     0.1190     0.1430 ca         1 QS7       0.055200
     17 CAI          1.4570    -0.3000    -0.0590 cc         1 QS7      -0.170400
     18 CAJ          0.5640    -0.3170     0.9510 cd         1 QS7       0.034800
     19 CAH          1.0800    -0.6910    -1.4110 c          1 QS7       0.726700
     20 OAQ          1.8690    -0.6640    -2.3400 o          1 QS7      -0.596500
     21 NAG         -0.2380    -1.0980    -1.5970 n          1 QS7      -0.429300
     22 CBI         -0.6780    -1.4990    -2.9280 c3         1 QS7       0.082300
     23 C2          -3.2770    -1.4340     0.1220 ca         1 QS7       0.940900
     24 NAX         -4.5520    -1.7500    -0.1880 nu         1 QS7      -0.834900
     25 CAY         -5.6630    -1.3210     0.6170 c5         1 QS7       0.173500
     26 CAZ         -6.9780    -1.9270     0.1120 c5         1 QS7       0.115400
     27 OBA         -7.9560    -0.9390     0.3360 os         1 QS7      -0.384600
     28 CBB         -7.3630     0.2900    -0.0110 c5         1 QS7       0.108400
     29 CBC         -5.9440     0.2270     0.5620 c5         1 QS7       0.048700
     30 NBD         -5.0000     0.9600    -0.2300 ns         1 QS7      -0.568900
     31 CBE         -3.9830     1.6980     0.2720 c          1 QS7       0.671300
     32 OBH         -3.8780     1.9900     1.4520 o          1 QS7      -0.585100
     33 CBF         -2.9810     2.0970    -0.7520 ce         1 QS7      -0.263200
     34 CBG         -1.7950     2.5840    -0.4110 c2         1 QS7      -0.123000
     35 H1          -1.5570    -0.4900     2.6950 h4         1 QS7       0.033100
     36 H2           6.4610     3.2590     1.7040 h1         1 QS7       0.044867
     37 H3           6.7390     3.3480    -0.0520 h1         1 QS7       0.044867
     38 H4           6.0060     4.7160     0.8040 h1         1 QS7       0.044867
     39 H5           6.5320     1.1940     0.7340 ha         1 QS7       0.144000
     40 H6           7.8580    -0.5060    -0.0040 h1         1 QS7       0.044867
     41 H7           7.5780    -0.5950     1.7520 h1         1 QS7       0.044867
     42 H8           7.9820    -2.0600     0.8400 h1         1 QS7       0.044867
     43 H9           0.8550    -0.0210     1.9520 ha         1 QS7       0.149000
     44 H10          0.1560    -1.4170    -3.6130 h1         1 QS7       0.058033
     45 H11         -1.0320    -2.5270    -2.9140 h1         1 QS7       0.058033
     46 H12         -1.4860    -0.8560    -3.2680 h1         1 QS7       0.058033
     47 H13         -4.7220    -1.9010    -1.1710 hn         1 QS7       0.436800
     48 H14         -5.4810    -1.6110     1.6500 h1         1 QS7       0.107700
     49 H15         -6.8980    -2.1660    -0.9590 h1         1 QS7       0.056200
     50 H16         -7.2640    -2.8340     0.6410 h1         1 QS7       0.056200
     51 H17         -7.3250     0.4180    -1.1030 h1         1 QS7       0.056200
     52 H18         -7.9590     1.1020     0.4060 h1         1 QS7       0.056200
     53 H19         -5.9210     0.6290     1.5720 h1         1 QS7       0.109700
     54 H20         -4.9960     0.7780    -1.2210 hn         1 QS7       0.307500
     55 H21         -3.2250     1.9310    -1.7960 ha         1 QS7       0.128000
     56 H23         -1.0570     2.8350    -1.1600 ha         1 QS7       0.129500
     57 H24         -1.5190     2.7390     0.6240 ha         1 QS7       0.129500
     58 OAU          4.7420     3.1760     0.5250 os         1 QS7      -0.297400
@<TRIPOS>BOND
     1     1     2 ar  
     2     1     5 ar  
     3     1    21 1   
     4     2     3 ar  
     5     2    18 1   
     6     3     4 ar  
     7     3    35 1   
     8     4    23 ar  
     9     5    23 ar  
    10     6    36 1   
    11     6    37 1   
    12     6    38 1   
    13     6    58 1   
    14     7     8 ar  
    15     7    10 ar  
    16     7    58 1   
    17     8     9 1   
    18     8    16 ar  
    19    10    11 ar  
    20    10    39 1   
    21    11    12 1   
    22    11    14 ar  
    23    12    13 1   
    24    13    40 1   
    25    13    41 1   
    26    13    42 1   
    27    14    15 1   
    28    14    16 ar  
    29    16    17 1   
    30    17    18 2   
    31    17    19 1   
    32    18    43 1   
    33    19    20 2   
    34    19    21 1   
    35    21    22 1   
    36    22    44 1   
    37    22    45 1   
    38    22    46 1   
    39    23    24 1   
    40    24    25 1   
    41    24    47 1   
    42    25    26 1   
    43    25    29 1   
    44    25    48 1   
    45    26    27 1   
    46    26    49 1   
    47    26    50 1   
    48    27    28 1   
    49    28    29 1   
    50    28    51 1   
    51    28    52 1   
    52    29    30 1   
    53    29    53 1   
    54    30    31 1   
    55    30    54 1   
    56    31    32 2   
    57    31    33 1   
    58    33    34 2   
    59    33    55 1   
    60    34    56 1   
    61    34    57 1   
@<TRIPOS>SUBSTRUCTURE
     1 QS7         1 TEMP              0 ****  ****    0 ROOT
