@<TRIPOS>MOLECULE
QS8
   25    25     1     0     0
SMALL
abcg2


@<TRIPOS>ATOM
      1 C4           6.7610    46.4950    27.0410 c6         1 QS8       0.136500
      2 C5           7.7170    47.0830    28.0830 c6         1 QS8      -0.049400
      3 C6           7.5790    46.4360    29.4620 c6         1 QS8      -0.103400
      4 O16          7.8500    42.2060    28.4750 o          1 QS8      -0.713533
      5 S13          8.3430    43.1480    27.4810 s6         1 QS8       1.524300
      6 O14          9.4700    43.9590    27.9180 o          1 QS8      -0.713533
      7 O15          8.5030    42.5940    26.1430 o          1 QS8      -0.713533
      8 O12          7.0370    44.1550    27.4020 os         1 QS8      -0.432000
      9 N11          7.2390    45.2360    26.4570 n7         1 QS8      -0.536900
     10 C1           6.1440    46.3550    29.9360 c6         1 QS8       0.345700
     11 F10          5.7030    47.6580    30.3100 f          1 QS8      -0.311000
     12 C3           5.3320    46.4660    27.5960 c6         1 QS8       0.098000
     13 N2           5.2560    45.8640    28.9290 n          1 QS8      -0.421800
     14 C7           4.3980    44.8510    29.1920 c          1 QS8       0.630900
     15 O8           4.2640    44.2880    30.2690 o          1 QS8      -0.609100
     16 H1           6.7480    47.1630    26.1750 h1         1 QS8       0.041700
     17 H2           8.7430    46.9900    27.7290 hc         1 QS8       0.050200
     18 H3           7.4960    48.1500    28.1630 hc         1 QS8       0.050200
     19 H4           7.9700    45.4190    29.4410 hc         1 QS8       0.078200
     20 H5           8.1520    46.9910    30.2060 hc         1 QS8       0.078200
     21 H6           6.6140    44.9840    25.6940 hn         1 QS8       0.393000
     22 H7           6.0360    45.7360    30.8220 h2         1 QS8       0.093700
     23 H8           4.9630    47.4930    27.6510 h1         1 QS8       0.038700
     24 H9           4.6720    45.9080    26.9340 h1         1 QS8       0.038700
     25 H10          3.8120    44.5610    28.3070 h5         1 QS8       0.006200
@<TRIPOS>BOND
     1     1     2 1   
     2     1     9 1   
     3     1    12 1   
     4     1    16 1   
     5     2     3 1   
     6     2    17 1   
     7     2    18 1   
     8     3    10 1   
     9     3    19 1   
    10     3    20 1   
    11     4     5 1   
    12     5     6 1   
    13     5     7 1   
    14     5     8 1   
    15     8     9 1   
    16     9    21 1   
    17    10    11 1   
    18    10    13 1   
    19    10    22 1   
    20    12    13 1   
    21    12    23 1   
    22    12    24 1   
    23    13    14 1   
    24    14    15 2   
    25    14    25 1   
@<TRIPOS>SUBSTRUCTURE
     1 QS8         1 TEMP              0 ****  ****    0 ROOT
