@<TRIPOS>MOLECULE
QS8
   25    25     1     0     0
SMALL
No Charge or Current Charge


@<TRIPOS>ATOM
      1 C4           6.7410    46.5400    27.0480 c6         1 QS8       0.136500
      2 C5           7.7310    47.0940    28.1160 c6         1 QS8      -0.049400
      3 C6           7.5290    46.4710    29.5270 c6         1 QS8      -0.103400
      4 O16          8.0130    42.0110    28.4470 o          1 QS8      -0.713533
      5 S13          8.3970    43.0050    27.4300 s6         1 QS8       1.524300
      6 O14          9.5770    43.8090    27.7910 o          1 QS8      -0.713533
      7 O15          8.4300    42.4770    26.0550 o          1 QS8      -0.713533
      8 O12          7.1220    44.0970    27.4270 os         1 QS8      -0.432000
      9 N11          7.1670    45.2400    26.4510 n7         1 QS8      -0.536900
     10 C1           6.0470    46.5020    29.9740 c6         1 QS8       0.345700
     11 F10          5.6960    47.8480    30.2060 f          1 QS8      -0.311000
     12 C3           5.2800    46.5310    27.5940 c6         1 QS8       0.098000
     13 N2           5.1690    45.9190    28.9420 n          1 QS8      -0.421800
     14 C7           4.4430    44.7440    29.1620 c          1 QS8       0.630900
     15 O8           4.3890    44.1920    30.2570 o          1 QS8      -0.609100
     16 H1           6.7560    47.2570    26.2140 h1         1 QS8       0.041700
     17 H2           8.7680    46.9480    27.7830 hc         1 QS8       0.050200
     18 H3           7.5900    48.1810    28.1890 hc         1 QS8       0.050200
     19 H4           7.8800    45.4330    29.5330 hc         1 QS8       0.078200
     20 H5           8.1470    47.0010    30.2630 hc         1 QS8       0.078200
     21 H6           6.5390    44.9710    25.6810 hn         1 QS8       0.393000
     22 H7           5.9290    45.9610    30.9250 h2         1 QS8       0.093700
     23 H8           4.9220    47.5680    27.6580 h1         1 QS8       0.038700
     24 H9           4.6210    46.0110    26.8840 h1         1 QS8       0.038700
     25 H10          3.9210    44.3770    28.2590 h5         1 QS8       0.006200
@<TRIPOS>BOND
     1     1     2 1   
     2     1     9 1   
     3     1    12 1   
     4     1    16 1   
     5     2     3 1   
     6     2    17 1   
     7     2    18 1   
     8     3    10 1   
     9     3    19 1   
    10     3    20 1   
    11     4     5 1   
    12     5     6 1   
    13     5     7 1   
    14     5     8 1   
    15     8     9 1   
    16     9    21 1   
    17    10    11 1   
    18    10    13 1   
    19    10    22 1   
    20    12    13 1   
    21    12    23 1   
    22    12    24 1   
    23    13    14 1   
    24    14    15 2   
    25    14    25 1   
@<TRIPOS>SUBSTRUCTURE
     1 QS8         1 TEMP              0 ****  ****    0 ROOT
