@<TRIPOS>MOLECULE
QSA
   46    49     1     0     0
SMALL
No Charge or Current Charge


@<TRIPOS>ATOM
      1 C10          7.0290   -14.0650   -36.0260 cc         1 QSA      -0.316000
      2 C11          6.8510   -15.2940   -35.4230 cd         1 QSA       0.103000
      3 C01          5.3240    -5.9990   -36.6880 c3         1 QSA       0.091300
      4 C03          6.4750    -8.2150   -36.9800 c          1 QSA       0.568100
      5 C05          7.3610    -9.2520   -36.2720 c3         1 QSA      -0.025400
      6 C07          7.5270   -11.4850   -37.5480 cd         1 QSA       0.356500
      7 C08          6.2470   -12.0290   -37.0960 cf         1 QSA      -0.457600
      8 C09          5.9760   -13.1980   -36.4330 cc         1 QSA       0.203800
      9 C13          5.2890   -17.2520   -35.0750 c3         1 QSA       0.184100
     10 C14          4.4670   -14.8900   -35.4730 ca         1 QSA       0.290000
     11 C15          3.1780   -15.2770   -35.0260 ca         1 QSA      -0.147000
     12 C16          2.0640   -14.4420   -35.1870 ca         1 QSA      -0.031000
     13 C17          2.2180   -13.1960   -35.7980 ca         1 QSA      -0.113000
     14 C18          3.4850   -12.7810   -36.2290 ca         1 QSA      -0.053000
     15 C19          4.6240   -13.6140   -36.0650 ca         1 QSA      -0.106800
     16 C21          9.6800   -11.0020   -38.6390 ca         1 QSA      -0.205000
     17 C22         10.8770   -10.9080   -39.3660 ca         1 QSA      -0.037000
     18 C23         11.6280    -9.7220   -39.2790 ca         1 QSA      -0.099000
     19 C24         11.1730    -8.6560   -38.4770 ca         1 QSA      -0.057000
     20 C25          9.9680    -8.7730   -37.7560 ca         1 QSA      -0.100000
     21 C26          9.2230    -9.9670   -37.8420 ca         1 QSA       0.000800
     22 N02          6.1550    -7.1120   -36.2180 ns         1 QSA      -0.505900
     23 N06          8.0170   -10.2170   -37.1860 na         1 QSA      -0.160500
     24 N12          5.5410   -15.8090   -35.3390 na         1 QSA      -0.580200
     25 O04          6.0730    -8.3430   -38.1280 o          1 QSA      -0.566100
     26 S20          8.6050   -12.3990   -38.6430 ss         1 QSA       0.152800
     27 H1           8.0490   -13.7370   -36.1840 ha         1 QSA       0.214000
     28 H2           7.6770   -15.9410   -35.1260 h4         1 QSA       0.227000
     29 H3           5.2240    -5.2510   -35.8910 h1         1 QSA       0.053033
     30 H4           5.7910    -5.5320   -37.5650 h1         1 QSA       0.053033
     31 H5           4.3270    -6.3700   -36.9610 h1         1 QSA       0.053033
     32 H6           8.1220    -8.7230   -35.6870 h1         1 QSA       0.088700
     33 H7           6.7270    -9.7960   -35.5620 h1         1 QSA       0.088700
     34 H8           5.4160   -11.3790   -37.3390 ha         1 QSA       0.195000
     35 H10          4.9890   -17.4000   -34.0290 h1         1 QSA       0.076700
     36 H11          4.4990   -17.6300   -35.7370 h1         1 QSA       0.076700
     37 H12          6.1980   -17.8380   -35.2610 h1         1 QSA       0.076700
     38 H13          3.0140   -16.2340   -34.5440 ha         1 QSA       0.136000
     39 H14          1.0840   -14.7630   -34.8400 ha         1 QSA       0.142000
     40 H15          1.3570   -12.5430   -35.9260 ha         1 QSA       0.138000
     41 H16          3.5470   -11.7910   -36.6680 ha         1 QSA       0.126000
     42 H17         11.2180   -11.7340   -39.9880 ha         1 QSA       0.139000
     43 H18         12.5590    -9.6260   -39.8350 ha         1 QSA       0.140000
     44 H19         11.7550    -7.7380   -38.4150 ha         1 QSA       0.138000
     45 H20          9.6310    -7.9380   -37.1480 ha         1 QSA       0.134000
     46 H21          6.5200    -7.0790   -35.2720 hn         1 QSA       0.317500
@<TRIPOS>BOND
     1     1     2 2   
     2     1     8 1   
     3     1    27 1   
     4     2    24 1   
     5     2    28 1   
     6     3    22 1   
     7     3    29 1   
     8     3    30 1   
     9     3    31 1   
    10     4     5 1   
    11     4    22 1   
    12     4    25 2   
    13     5    23 1   
    14     5    32 1   
    15     5    33 1   
    16     6     7 1   
    17     6    23 2   
    18     6    26 1   
    19     7     8 2   
    20     7    34 1   
    21     8    15 1   
    22     9    24 1   
    23     9    35 1   
    24     9    36 1   
    25     9    37 1   
    26    10    11 ar  
    27    10    15 ar  
    28    10    24 1   
    29    11    12 ar  
    30    11    38 1   
    31    12    13 ar  
    32    12    39 1   
    33    13    14 ar  
    34    13    40 1   
    35    14    15 ar  
    36    14    41 1   
    37    16    17 ar  
    38    16    21 ar  
    39    16    26 1   
    40    17    18 ar  
    41    17    42 1   
    42    18    19 ar  
    43    18    43 1   
    44    19    20 ar  
    45    19    44 1   
    46    20    21 ar  
    47    20    45 1   
    48    21    23 1   
    49    22    46 1   
@<TRIPOS>SUBSTRUCTURE
     1 QSA         1 TEMP              0 ****  ****    0 ROOT
