@<TRIPOS>MOLECULE
QSA
   46    49     1     0     0
SMALL
abcg2


@<TRIPOS>ATOM
      1 C10          7.0130   -14.2270   -36.4910 cc         1 QSA      -0.316000
      2 C11          6.4420   -15.4550   -36.2890 cd         1 QSA       0.103000
      3 C01          4.0900    -7.8360   -37.0540 c3         1 QSA       0.091300
      4 C03          6.3900    -8.6620   -37.1880 c          1 QSA       0.568100
      5 C05          7.6530    -8.9880   -36.3820 c3         1 QSA      -0.025400
      6 C07          8.0380   -11.3470   -36.9670 cd         1 QSA       0.356500
      7 C08          6.8610   -11.7450   -36.3590 cf         1 QSA      -0.457600
      8 C09          6.3230   -13.0360   -36.1970 cc         1 QSA       0.203800
      9 C13          4.6700   -16.9690   -35.6220 c3         1 QSA       0.184100
     10 C14          4.4350   -14.5040   -35.4950 ca         1 QSA       0.290000
     11 C15          3.1310   -14.6710   -34.9980 ca         1 QSA      -0.147000
     12 C16          2.3590   -13.5740   -34.6930 ca         1 QSA      -0.031000
     13 C17          2.8640   -12.2820   -34.8820 ca         1 QSA      -0.113000
     14 C18          4.1380   -12.1070   -35.3680 ca         1 QSA      -0.053000
     15 C19          4.9710   -13.2010   -35.6830 ca         1 QSA      -0.106800
     16 C21         10.1510   -10.9590   -38.2580 ca         1 QSA      -0.205000
     17 C22         11.3200   -10.9390   -39.0070 ca         1 QSA      -0.037000
     18 C23         11.9200    -9.7100   -39.2520 ca         1 QSA      -0.099000
     19 C24         11.3520    -8.5340   -38.7580 ca         1 QSA      -0.057000
     20 C25         10.1840    -8.5550   -38.0070 ca         1 QSA      -0.100000
     21 C26          9.5850    -9.7850   -37.7500 ca         1 QSA       0.000800
     22 N02          5.3560    -8.2300   -36.4570 ns         1 QSA      -0.505900
     23 N06          8.4310   -10.0360   -37.0130 na         1 QSA      -0.160500
     24 N12          5.2010   -15.6150   -35.8100 na         1 QSA      -0.580200
     25 O04          6.3670    -8.7780   -38.4100 o          1 QSA      -0.566100
     26 S20          9.1890   -12.3490   -37.8190 ss         1 QSA       0.152800
     27 H1           8.0310   -14.2270   -36.8430 ha         1 QSA       0.214000
     28 H2           6.9870   -16.3630   -36.5030 h4         1 QSA       0.227000
     29 H3           3.4100    -7.5500   -36.2560 h1         1 QSA       0.053033
     30 H4           4.2260    -6.9910   -37.7300 h1         1 QSA       0.053033
     31 H5           3.6560    -8.6650   -37.6150 h1         1 QSA       0.053033
     32 H6           8.2620    -8.0880   -36.3270 h1         1 QSA       0.088700
     33 H7           7.4130    -9.2740   -35.3590 h1         1 QSA       0.088700
     34 H8           6.2680   -10.9350   -35.9750 ha         1 QSA       0.195000
     35 H10          4.4140   -17.1280   -34.5760 h1         1 QSA       0.076700
     36 H11          3.7850   -17.1130   -36.2400 h1         1 QSA       0.076700
     37 H12          5.4350   -17.6790   -35.9170 h1         1 QSA       0.076700
     38 H13          2.7270   -15.6610   -34.8540 ha         1 QSA       0.136000
     39 H14          1.3570   -13.7160   -34.3100 ha         1 QSA       0.142000
     40 H15          2.2520   -11.4200   -34.6520 ha         1 QSA       0.138000
     41 H16          4.4940   -11.0990   -35.5160 ha         1 QSA       0.126000
     42 H17         11.7460   -11.8570   -39.3890 ha         1 QSA       0.139000
     43 H18         12.8310    -9.6670   -39.8350 ha         1 QSA       0.140000
     44 H19         11.8260    -7.5830   -38.9640 ha         1 QSA       0.138000
     45 H20          9.7570    -7.6310   -37.6440 ha         1 QSA       0.134000
     46 H21          5.4450    -8.1990   -35.4540 hn         1 QSA       0.317500
@<TRIPOS>BOND
     1     1     2 2   
     2     1     8 1   
     3     1    27 1   
     4     2    24 1   
     5     2    28 1   
     6     3    22 1   
     7     3    29 1   
     8     3    30 1   
     9     3    31 1   
    10     4     5 1   
    11     4    22 1   
    12     4    25 2   
    13     5    23 1   
    14     5    32 1   
    15     5    33 1   
    16     6     7 1   
    17     6    23 2   
    18     6    26 1   
    19     7     8 2   
    20     7    34 1   
    21     8    15 1   
    22     9    24 1   
    23     9    35 1   
    24     9    36 1   
    25     9    37 1   
    26    10    11 ar  
    27    10    15 ar  
    28    10    24 1   
    29    11    12 ar  
    30    11    38 1   
    31    12    13 ar  
    32    12    39 1   
    33    13    14 ar  
    34    13    40 1   
    35    14    15 ar  
    36    14    41 1   
    37    16    17 ar  
    38    16    21 ar  
    39    16    26 1   
    40    17    18 ar  
    41    17    42 1   
    42    18    19 ar  
    43    18    43 1   
    44    19    20 ar  
    45    19    44 1   
    46    20    21 ar  
    47    20    45 1   
    48    21    23 1   
    49    22    46 1   
@<TRIPOS>SUBSTRUCTURE
     1 QSA         1 TEMP              0 ****  ****    0 ROOT
