@<TRIPOS>MOLECULE
QSB
   15    15     1     0     0
SMALL
abcg2


@<TRIPOS>ATOM
      1 C01        135.6200    51.6750   227.9940 ca         1 QSB      -0.027000
      2 C02        135.4960    51.3770   229.3420 ca         1 QSB      -0.122900
      3 C03        135.4420    50.0550   229.7930 ca         1 QSB       0.131100
      4 C04        135.5290    49.0440   228.8350 ca         1 QSB      -0.180000
      5 C05        135.6580    49.3460   227.4920 ca         1 QSB      -0.040000
      6 C06        135.7040    50.6650   227.0450 ca         1 QSB      -0.166600
      7 C07        135.8410    51.0010   225.5640 c          1 QSB       0.718600
      8 O08        135.8560    52.2110   225.2680 o          1 QSB      -0.717500
      9 O09        135.9260    50.0330   224.7850 o          1 QSB      -0.717500
     10 O10        135.3150    49.6800   231.0730 oh         1 QSB      -0.551100
     11 BR1        135.4040    52.7980   230.5940 br         1 QSB      -0.171100
     12 H011       135.6550    52.7070   227.6700 ha         1 QSB       0.145000
     13 H041       135.4930    48.0140   229.1660 ha         1 QSB       0.105000
     14 H051       135.7250    48.5390   226.7750 ha         1 QSB       0.133000
     15 H101       135.2530    50.4340   231.6720 ho         1 QSB       0.462000
@<TRIPOS>BOND
     1     1     2 ar  
     2     1     6 ar  
     3     1    12 1   
     4     2     3 ar  
     5     2    11 1   
     6     3     4 ar  
     7     3    10 1   
     8     4     5 ar  
     9     4    13 1   
    10     5     6 ar  
    11     5    14 1   
    12     6     7 1   
    13     7     8 1   
    14     7     9 1   
    15    10    15 1   
@<TRIPOS>SUBSTRUCTURE
     1 QSB         1 TEMP              0 ****  ****    0 ROOT
