@<TRIPOS>MOLECULE
QSB
   15    15     1     0     0
SMALL
No Charge or Current Charge


@<TRIPOS>ATOM
      1 C01        135.6180    51.6850   228.0110 ca         1 QSB      -0.027000
      2 C02        135.4890    51.3700   229.3760 ca         1 QSB      -0.122900
      3 C03        135.4440    50.0260   229.7860 ca         1 QSB       0.131100
      4 C04        135.5280    49.0020   228.8350 ca         1 QSB      -0.180000
      5 C05        135.6580    49.3130   227.4690 ca         1 QSB      -0.040000
      6 C06        135.7040    50.6600   227.0400 ca         1 QSB      -0.166600
      7 C07        135.8440    51.0010   225.5690 c          1 QSB       0.718600
      8 O08        135.8800    52.1790   225.2430 o          1 QSB      -0.717500
      9 O09        135.9150    50.0850   224.7610 o          1 QSB      -0.717500
     10 O10        135.3190    49.7140   231.1060 oh         1 QSB      -0.551100
     11 Br1        135.3750    52.7910   230.6600 br         1 QSB      -0.171100
     12 H011       135.6510    52.7310   227.7110 ha         1 QSB       0.145000
     13 H041       135.4940    47.9620   229.1510 ha         1 QSB       0.105000
     14 H051       135.7220    48.5010   226.7470 ha         1 QSB       0.133000
     15 H101       135.2760    50.5590   231.6050 ho         1 QSB       0.462000
@<TRIPOS>BOND
     1     1     2 ar  
     2     1     6 ar  
     3     1    12 1   
     4     2     3 ar  
     5     2    11 1   
     6     3     4 ar  
     7     3    10 1   
     8     4     5 ar  
     9     4    13 1   
    10     5     6 ar  
    11     5    14 1   
    12     6     7 1   
    13     7     8 1   
    14     7     9 1   
    15    10    15 1   
@<TRIPOS>SUBSTRUCTURE
     1 QSB         1 TEMP              0 ****  ****    0 ROOT
