@<TRIPOS>MOLECULE
QSC
   20    20     1     0     0
SMALL
abcg2


@<TRIPOS>ATOM
      1 CAE          2.2840     0.5660     1.1620 c3         1 QSC      -0.088100
      2 CAT         -2.5710    -0.1570     0.1000 ca         1 QSC      -0.109000
      3 CAY         -2.0320     1.0810    -0.2280 ca         1 QSC      -0.115500
      4 CAZ         -1.7220    -1.2390     0.3010 ca         1 QSC      -0.115500
      5 CBE         -0.6570     1.2310    -0.3500 ca         1 QSC      -0.097500
      6 CBF         -0.3480    -1.0840     0.1790 ca         1 QSC      -0.097500
      7 NBR          2.3290    -0.8160    -0.8370 n8         1 QSC      -1.001200
      8 CCI          0.2020     0.1550    -0.1450 ca         1 QSC      -0.088300
      9 CCL          1.6990     0.3480    -0.2310 c3         1 QSC       0.211800
     10 HAE          1.8240     1.4260     1.6480 hc         1 QSC       0.040033
     11 HAEA         2.1220    -0.3100     1.7920 hc         1 QSC       0.040033
     12 HAEB         3.3590     0.7510     1.1060 hc         1 QSC       0.040033
     13 HAY         -2.6830     1.9290    -0.3940 ha         1 QSC       0.110500
     14 HAZ         -2.1330    -2.2080     0.5540 ha         1 QSC       0.110500
     15 HBE         -0.2470     2.1990    -0.6150 ha         1 QSC       0.118000
     16 HBF          0.3070    -1.9320     0.3290 ha         1 QSC       0.118000
     17 HNBR         2.0150    -0.9130    -1.7950 hn         1 QSC       0.396500
     18 HCL          1.8770     1.2680    -0.8080 h1         1 QSC       0.017700
     19 H2           3.3290    -0.6650    -0.8870 hn         1 QSC       0.396500
     20 HAT         -3.6420    -0.2790     0.1910 ha         1 QSC       0.111000
@<TRIPOS>BOND
     1     1     9 1   
     2     1    10 1   
     3     1    11 1   
     4     1    12 1   
     5     2     3 ar  
     6     2     4 ar  
     7     2    20 1   
     8     3     5 ar  
     9     3    13 1   
    10     4     6 ar  
    11     4    14 1   
    12     5     8 ar  
    13     5    15 1   
    14     6     8 ar  
    15     6    16 1   
    16     7     9 1   
    17     7    17 1   
    18     7    19 1   
    19     8     9 1   
    20     9    18 1   
@<TRIPOS>SUBSTRUCTURE
     1 QSC         1 TEMP              0 ****  ****    0 ROOT
