@<TRIPOS>MOLECULE
QSC
   20    20     1     0     0
SMALL
No Charge or Current Charge


@<TRIPOS>ATOM
      1 CAE          2.3690     0.3270     1.2510 c3         1 QSC      -0.088100
      2 CAT         -2.6110    -0.1650     0.0420 ca         1 QSC      -0.109000
      3 CAY         -2.0680     1.0220    -0.4760 ca         1 QSC      -0.115500
      4 CAZ         -1.7580    -1.1830     0.5000 ca         1 QSC      -0.115500
      5 CBE         -0.6740     1.1930    -0.5360 ca         1 QSC      -0.097500
      6 CBF         -0.3630    -1.0130     0.4400 ca         1 QSC      -0.097500
      7 NBR          2.3270    -0.6020    -1.0420 n8         1 QSC      -1.001200
      8 CCI          0.1920     0.1780    -0.0770 ca         1 QSC      -0.088300
      9 CCL          1.7070     0.3790    -0.1400 c3         1 QSC       0.211800
     10 HAE          1.9150     1.0710     1.9150 hc         1 QSC       0.040033
     11 HAEA         2.2510    -0.6610     1.7130 hc         1 QSC       0.040033
     12 HAEB         3.4410     0.5470     1.1790 hc         1 QSC       0.040033
     13 HAY         -2.7280     1.8110    -0.8310 ha         1 QSC       0.110500
     14 HAZ         -2.1760    -2.1040     0.8990 ha         1 QSC       0.110500
     15 HBE         -0.2660     2.1180    -0.9380 ha         1 QSC       0.118000
     16 HBF          0.2880    -1.8090     0.7920 ha         1 QSC       0.118000
     17 HNBR         1.9300    -0.4770    -1.9800 hn         1 QSC       0.396500
     18 HCL          1.9070     1.3720    -0.5650 h1         1 QSC       0.017700
     19 H2           3.3170    -0.3590    -1.1630 hn         1 QSC       0.396500
     20 HAT         -3.6900    -0.2970     0.0880 ha         1 QSC       0.111000
@<TRIPOS>BOND
     1     1     9 1   
     2     1    10 1   
     3     1    11 1   
     4     1    12 1   
     5     2     3 ar  
     6     2     4 ar  
     7     2    20 1   
     8     3     5 ar  
     9     3    13 1   
    10     4     6 ar  
    11     4    14 1   
    12     5     8 ar  
    13     5    15 1   
    14     6     8 ar  
    15     6    16 1   
    16     7     9 1   
    17     7    17 1   
    18     7    19 1   
    19     8     9 1   
    20     9    18 1   
@<TRIPOS>SUBSTRUCTURE
     1 QSC         1 TEMP              0 ****  ****    0 ROOT
