@<TRIPOS>MOLECULE
QSD
   57    60     1     0     0
SMALL
No Charge or Current Charge


@<TRIPOS>ATOM
      1 CAA         10.2050     2.1960     0.3880 c3         1 QSD       0.071900
      2 NAB          9.0840     1.2660     0.1980 na         1 QSD       0.137800
      3 CAC          7.7310     1.5880     0.2390 cc         1 QSD      -0.156000
      4 NAF          9.3290    -0.0680    -0.0470 nc         1 QSD      -0.523800
      5 CAE          8.1150    -0.5710    -0.1580 cd         1 QSD       0.251900
      6 CAD          7.0940     0.3980     0.0080 cd         1 QSD      -0.151000
      7 CAG          5.6350     0.1810    -0.0530 ca         1 QSD      -0.062000
      8 CAH          4.7260     1.2510     0.1290 ca         1 QSD       0.369900
      9 NAI          3.3800     1.1100     0.0830 nb         1 QSD      -0.676000
     10 CBG          5.1000    -1.0980    -0.3040 ca         1 QSD      -0.046000
     11 CBF          3.7050    -1.2450    -0.3510 ca         1 QSD      -0.208000
     12 CAJ          2.8910    -0.1260    -0.1270 ca         1 QSD       0.480900
     13 NAK          1.4990    -0.2220    -0.2350 ns         1 QSD      -0.324900
     14 C            0.5000     0.4390     0.4530 c          1 QSD       0.608100
     15 O            0.7190     1.2330     1.3650 o          1 QSD      -0.530100
     16 CA          -0.9530     0.0670    -0.0240 c3         1 QSD       0.145800
     17 CAZ         -1.1440    -1.4540    -0.0270 ca         1 QSD      -0.106300
     18 CBA         -1.3310    -2.1450    -1.2420 ca         1 QSD      -0.096000
     19 CBB         -1.4940    -3.5410    -1.2470 ca         1 QSD      -0.114000
     20 CBC         -1.4710    -4.2570    -0.0380 ca         1 QSD      -0.102000
     21 CBD         -1.2860    -3.5760     1.1760 ca         1 QSD      -0.114000
     22 CBE         -1.1230    -2.1790     1.1820 ca         1 QSD      -0.096000
     23 N           -2.0570     0.7260     0.7510 n7         1 QSD      -0.862400
     24 CAP         -3.4170     0.5610     0.1970 c3         1 QSD       0.164800
     25 CAQ         -4.4560     1.2490     1.1030 c3         1 QSD      -0.041100
     26 CAR         -5.8740     1.0800     0.5710 ca         1 QSD      -0.055300
     27 CAS         -6.5920    -0.1020     0.8340 ca         1 QSD      -0.112000
     28 CAT         -7.8990    -0.2640     0.3400 ca         1 QSD      -0.070000
     29 CAU         -8.4990     0.7560    -0.4220 ca         1 QSD      -0.022000
     30 CAX         -9.8340     0.5910    -0.9270 cg         1 QSD       0.324000
     31 NAY        -10.9170     0.4640    -1.3450 n1         1 QSD      -0.454000
     32 CAV         -7.7820     1.9390    -0.6870 ca         1 QSD      -0.070000
     33 CAW         -6.4750     2.0990    -0.1930 ca         1 QSD      -0.112000
     34 H1          10.8330     2.2010    -0.5110 h1         1 QSD       0.057700
     35 H2           9.8220     3.2070     0.5680 h1         1 QSD       0.057700
     36 H3          10.8040     1.8770     1.2490 h1         1 QSD       0.057700
     37 H4           7.3670     2.5910     0.4210 h4         1 QSD       0.156000
     38 H5           8.0060    -1.6290    -0.3570 h4         1 QSD       0.037100
     39 H6           5.0840     2.2620     0.3150 h4         1 QSD       0.018100
     40 H7           5.7430    -1.9600    -0.4650 ha         1 QSD       0.119000
     41 H8           3.2580    -2.2140    -0.5530 ha         1 QSD       0.122000
     42 H9           1.1800    -0.9040    -0.9090 hn         1 QSD       0.160000
     43 H10         -1.0010     0.4140    -1.0650 h1         1 QSD       0.041700
     44 H11         -1.3520    -1.6020    -2.1850 ha         1 QSD       0.124000
     45 H12         -1.6380    -4.0680    -2.1870 ha         1 QSD       0.116500
     46 H13         -1.5970    -5.3380    -0.0420 ha         1 QSD       0.115000
     47 H14         -1.2700    -4.1280     2.1130 ha         1 QSD       0.116500
     48 H15         -0.9850    -1.6580     2.1270 ha         1 QSD       0.124000
     49 H16         -1.8500     1.7320     0.8110 hn         1 QSD       0.440000
     50 H18         -3.4770     0.9970    -0.8100 h1         1 QSD       0.036700
     51 H19         -3.6740    -0.5040     0.1150 h1         1 QSD       0.036700
     52 H20         -4.3850     0.8270     2.1130 hc         1 QSD       0.059700
     53 H21         -4.2090     2.3130     1.1940 hc         1 QSD       0.059700
     54 H22         -6.1370    -0.8970     1.4200 ha         1 QSD       0.120500
     55 H23         -8.4420    -1.1840     0.5510 ha         1 QSD       0.126000
     56 H24         -8.2340     2.7350    -1.2760 ha         1 QSD       0.126000
     57 H25         -5.9300     3.0160    -0.4060 ha         1 QSD       0.120500
@<TRIPOS>BOND
     1     1     2 1   
     2     1    34 1   
     3     1    35 1   
     4     1    36 1   
     5     2     3 1   
     6     2     4 1   
     7     3     6 2   
     8     3    37 1   
     9     4     5 2   
    10     5     6 1   
    11     5    38 1   
    12     6     7 1   
    13     7     8 ar  
    14     7    10 ar  
    15     8     9 ar  
    16     8    39 1   
    17     9    12 ar  
    18    10    11 ar  
    19    10    40 1   
    20    11    12 ar  
    21    11    41 1   
    22    12    13 1   
    23    13    14 1   
    24    13    42 1   
    25    14    15 2   
    26    14    16 1   
    27    16    17 1   
    28    16    23 1   
    29    16    43 1   
    30    17    18 ar  
    31    17    22 ar  
    32    18    19 ar  
    33    18    44 1   
    34    19    20 ar  
    35    19    45 1   
    36    20    21 ar  
    37    20    46 1   
    38    21    22 ar  
    39    21    47 1   
    40    22    48 1   
    41    23    24 1   
    42    23    49 1   
    43    24    25 1   
    44    24    50 1   
    45    24    51 1   
    46    25    26 1   
    47    25    52 1   
    48    25    53 1   
    49    26    27 ar  
    50    26    33 ar  
    51    27    28 ar  
    52    27    54 1   
    53    28    29 ar  
    54    28    55 1   
    55    29    30 1   
    56    29    32 ar  
    57    30    31 3   
    58    32    33 ar  
    59    32    56 1   
    60    33    57 1   
@<TRIPOS>SUBSTRUCTURE
     1 QSD         1 TEMP              0 ****  ****    0 ROOT
