@<TRIPOS>MOLECULE
QSD
   57    60     1     0     0
SMALL
abcg2


@<TRIPOS>ATOM
      1 CAA         10.0370     1.9860     0.8790 c3         1 QSD       0.071900
      2 NAB          8.9310     1.2100     0.3720 na         1 QSD       0.137800
      3 CAC          7.6240     1.4250     0.5790 cc         1 QSD      -0.156000
      4 NAF          9.1570     0.1500    -0.3950 nc         1 QSD      -0.523800
      5 CAE          7.9650    -0.3310    -0.6890 cd         1 QSD       0.251900
      6 CAD          6.9370     0.4350    -0.1020 cd         1 QSD      -0.151000
      7 CAG          5.4970     0.2300    -0.1910 ca         1 QSD      -0.062000
      8 CAH          4.5860     1.1970     0.2220 ca         1 QSD       0.369900
      9 NAI          3.2680     1.0630     0.1700 nb         1 QSD      -0.676000
     10 CBG          4.9470    -0.9510    -0.7000 ca         1 QSD      -0.046000
     11 CBF          3.5810    -1.1050    -0.7620 ca         1 QSD      -0.208000
     12 CAJ          2.7690    -0.0630    -0.3040 ca         1 QSD       0.480900
     13 NAK          1.3900    -0.2370    -0.3790 ns         1 QSD      -0.324900
     14 C            0.3940     0.5110     0.1690 c          1 QSD       0.608100
     15 O            0.5650     1.4900     0.8610 o          1 QSD      -0.530100
     16 CA          -1.0140     0.0280    -0.2210 c3         1 QSD       0.145800
     17 CAZ         -1.1420    -1.4720    -0.0810 ca         1 QSD      -0.106300
     18 CBA         -1.1910    -2.2920    -1.2030 ca         1 QSD      -0.096000
     19 CBB         -1.2780    -3.6740    -1.0640 ca         1 QSD      -0.114000
     20 CBC         -1.3250    -4.2420     0.2000 ca         1 QSD      -0.102000
     21 CBD         -1.2870    -3.4260     1.3250 ca         1 QSD      -0.114000
     22 CBE         -1.1960    -2.0500     1.1860 ca         1 QSD      -0.096000
     23 N           -1.9840     0.7080     0.6010 n7         1 QSD      -0.862400
     24 CAP         -3.3430     0.5520     0.1260 c3         1 QSD       0.164800
     25 CAQ         -4.3090     1.3160     1.0290 c3         1 QSD      -0.041100
     26 CAR         -5.7280     1.1270     0.5830 ca         1 QSD      -0.055300
     27 CAS         -6.4810     0.0540     1.0570 ca         1 QSD      -0.112000
     28 CAT         -7.7780    -0.1530     0.6250 ca         1 QSD      -0.070000
     29 CAU         -8.3410     0.7250    -0.3010 ca         1 QSD      -0.022000
     30 CAX         -9.6800     0.5210    -0.7500 cg         1 QSD       0.324000
     31 NAY        -10.7610     0.3560    -1.1150 n1         1 QSD      -0.454000
     32 CAV         -7.6010     1.8020    -0.7880 ca         1 QSD      -0.070000
     33 CAW         -6.3050     1.9930    -0.3450 ca         1 QSD      -0.112000
     34 H1          10.6060     2.4170     0.0580 h1         1 QSD       0.057700
     35 H2           9.6500     2.7890     1.4990 h1         1 QSD       0.057700
     36 H3          10.6940     1.3590     1.4790 h1         1 QSD       0.057700
     37 H4           7.2780     2.2450     1.1880 h4         1 QSD       0.156000
     38 H5           7.8730    -1.2040    -1.3170 h4         1 QSD       0.037100
     39 H6           4.9410     2.1460     0.6110 h4         1 QSD       0.018100
     40 H7           5.5840    -1.7570    -1.0400 ha         1 QSD       0.119000
     41 H8           3.1500    -2.0200    -1.1480 ha         1 QSD       0.122000
     42 H9           1.0970    -1.0720    -0.8670 hn         1 QSD       0.160000
     43 H10         -1.1200     0.2770    -1.2930 h1         1 QSD       0.041700
     44 H11         -1.1680    -1.8530    -2.1940 ha         1 QSD       0.124000
     45 H12         -1.3160    -4.3020    -1.9440 ha         1 QSD       0.116500
     46 H13         -1.3960    -5.3160     0.3100 ha         1 QSD       0.115000
     47 H14         -1.3280    -3.8650     2.3140 ha         1 QSD       0.116500
     48 H15         -1.1760    -1.4140     2.0630 ha         1 QSD       0.124000
     49 H16         -1.7510     1.6920     0.6520 hn         1 QSD       0.440000
     50 H18         -3.4720     0.8880    -0.9150 h1         1 QSD       0.036700
     51 H19         -3.6060    -0.5090     0.1430 h1         1 QSD       0.036700
     52 H20         -4.1870     0.9650     2.0550 hc         1 QSD       0.059700
     53 H21         -4.0540     2.3800     1.0190 hc         1 QSD       0.059700
     54 H22         -6.0470    -0.6270     1.7800 ha         1 QSD       0.120500
     55 H23         -8.3540    -0.9870     1.0050 ha         1 QSD       0.126000
     56 H24         -8.0400     2.4830    -1.5050 ha         1 QSD       0.126000
     57 H25         -5.7350     2.8330    -0.7220 ha         1 QSD       0.120500
@<TRIPOS>BOND
     1     1     2 1   
     2     1    34 1   
     3     1    35 1   
     4     1    36 1   
     5     2     3 1   
     6     2     4 1   
     7     3     6 2   
     8     3    37 1   
     9     4     5 2   
    10     5     6 1   
    11     5    38 1   
    12     6     7 1   
    13     7     8 ar  
    14     7    10 ar  
    15     8     9 ar  
    16     8    39 1   
    17     9    12 ar  
    18    10    11 ar  
    19    10    40 1   
    20    11    12 ar  
    21    11    41 1   
    22    12    13 1   
    23    13    14 1   
    24    13    42 1   
    25    14    15 2   
    26    14    16 1   
    27    16    17 1   
    28    16    23 1   
    29    16    43 1   
    30    17    18 ar  
    31    17    22 ar  
    32    18    19 ar  
    33    18    44 1   
    34    19    20 ar  
    35    19    45 1   
    36    20    21 ar  
    37    20    46 1   
    38    21    22 ar  
    39    21    47 1   
    40    22    48 1   
    41    23    24 1   
    42    23    49 1   
    43    24    25 1   
    44    24    50 1   
    45    24    51 1   
    46    25    26 1   
    47    25    52 1   
    48    25    53 1   
    49    26    27 ar  
    50    26    33 ar  
    51    27    28 ar  
    52    27    54 1   
    53    28    29 ar  
    54    28    55 1   
    55    29    30 1   
    56    29    32 ar  
    57    30    31 3   
    58    32    33 ar  
    59    32    56 1   
    60    33    57 1   
@<TRIPOS>SUBSTRUCTURE
     1 QSD         1 TEMP              0 ****  ****    0 ROOT
