@<TRIPOS>MOLECULE
QSF
   39    42     1     0     0
SMALL
No Charge or Current Charge


@<TRIPOS>ATOM
      1 N1         -17.1980     4.1350    24.8410 nb         1 QSF      -0.655000
      2 C4         -18.3610     4.1790    25.5290 ca         1 QSF       0.316900
      3 C5         -16.4810     5.2780    24.7500 ca         1 QSF       0.362900
      4 C6         -16.8990     6.4970    25.3200 ca         1 QSF      -0.093000
      5 C7         -16.1170     7.6580    25.1680 ca         1 QSF      -0.086000
      6 C8         -16.5520     8.8750    25.7170 ca         1 QSF      -0.106000
      7 C10        -18.5550     7.7780    26.5650 ca         1 QSF      -0.088000
      8 C13        -22.4700     5.4630    30.8450 ca         1 QSF      -0.010000
      9 C15        -22.4840     3.7070    32.4840 ca         1 QSF      -0.060000
     10 C17        -21.7860     3.2470    30.1730 ca         1 QSF      -0.042000
     11 C16        -22.0220     2.8070    31.4940 ca         1 QSF       0.091000
     12 C14        -22.7160     5.0610    32.1620 ca         1 QSF      -0.135000
     13 C18        -22.0190     4.5980    29.8710 ca         1 QSF      -0.132300
     14 N2         -22.6160     6.7090    30.2540 ns         1 QSF      -0.138000
     15 C12        -22.2990     6.7980    28.9140 c          1 QSF       0.585000
     16 O1         -22.3800     7.7980    28.2130 o          1 QSF      -0.512000
     17 C1         -21.8540     5.3460    28.5430 c5         1 QSF      -0.167700
     18 C          -22.7620     4.7470    27.4230 c3         1 QSF      -0.077100
     19 C2         -20.3530     5.5670    28.2000 c          1 QSF       0.621100
     20 O          -19.4930     5.9480    28.9860 o          1 QSF      -0.564100
     21 C3         -18.8570     5.3400    26.1590 ca         1 QSF      -0.081000
     22 C11        -18.1170     6.5430    26.0350 ca         1 QSF      -0.003000
     23 C9         -17.7720     8.9350    26.4090 ca         1 QSF      -0.089000
     24 H1         -18.9110     3.2400    25.5940 h4         1 QSF       0.021100
     25 H2         -15.5480     5.2150    24.1910 h4         1 QSF       0.022100
     26 H3         -15.1760     7.6210    24.6210 ha         1 QSF       0.117000
     27 H4         -15.9500     9.7730    25.5970 ha         1 QSF       0.117000
     28 H5         -19.5020     7.8620    27.0890 ha         1 QSF       0.130000
     29 H6         -22.6610     3.3510    33.4960 ha         1 QSF       0.134000
     30 H7         -21.4330     2.5550    29.4130 ha         1 QSF       0.133000
     31 H8         -23.0730     5.7650    32.9110 ha         1 QSF       0.130000
     32 H9         -22.9510     7.5090    30.7750 hn         1 QSF       0.180000
     33 H10        -23.8010     4.6730    27.7660 hc         1 QSF       0.053367
     34 H11        -22.7670     5.3700    26.5190 hc         1 QSF       0.053367
     35 H12        -22.4420     3.7360    27.1420 hc         1 QSF       0.053367
     36 H13        -20.8570     4.8720    26.3490 hn         1 QSF       0.162000
     37 H14        -18.1150     9.8820    26.8220 ha         1 QSF       0.119000
     38 N          -20.0790     5.2450    26.8770 ns         1 QSF      -0.162000
     39 Cl         -21.7400     1.1210    31.9120 cl         1 QSF      -0.204000
@<TRIPOS>BOND
     1     1     2 ar  
     2     1     3 ar  
     3     2    21 ar  
     4     2    24 1   
     5     3     4 ar  
     6     3    25 1   
     7     4     5 ar  
     8     4    22 ar  
     9     5     6 ar  
    10     5    26 1   
    11     6    23 ar  
    12     6    27 1   
    13     7    22 ar  
    14     7    23 ar  
    15     7    28 1   
    16     8    12 ar  
    17     8    13 ar  
    18     8    14 1   
    19     9    11 ar  
    20     9    12 ar  
    21     9    29 1   
    22    10    11 ar  
    23    10    13 ar  
    24    10    30 1   
    25    11    39 1   
    26    12    31 1   
    27    13    17 1   
    28    14    15 1   
    29    14    32 1   
    30    15    16 2   
    31    15    17 1   
    32    17    18 1   
    33    17    19 1   
    34    18    33 1   
    35    18    34 1   
    36    18    35 1   
    37    19    20 2   
    38    19    38 1   
    39    21    22 ar  
    40    21    38 1   
    41    23    37 1   
    42    36    38 1   
@<TRIPOS>SUBSTRUCTURE
     1 QSF         1 TEMP              0 ****  ****    0 ROOT
