@<TRIPOS>MOLECULE
QSF
   39    42     1     0     0
SMALL
abcg2


@<TRIPOS>ATOM
      1 N1         -16.8580     3.9830    25.7600 nb         1 QSF      -0.655000
      2 C4         -18.1110     4.0770    26.2730 ca         1 QSF       0.316900
      3 C5         -16.2560     5.0960    25.4080 ca         1 QSF       0.362900
      4 C6         -16.8410     6.3800    25.5160 ca         1 QSF      -0.093000
      5 C7         -16.1620     7.5520    25.1070 ca         1 QSF      -0.086000
      6 C8         -16.7770     8.7730    25.2030 ca         1 QSF      -0.106000
      7 C10        -18.7750     7.7490    26.1170 ca         1 QSF      -0.088000
      8 C13        -22.3940     5.3450    30.9100 ca         1 QSF      -0.010000
      9 C15        -22.3780     3.3210    32.1620 ca         1 QSF      -0.060000
     10 C17        -21.7750     3.2920    29.8040 ca         1 QSF      -0.042000
     11 C16        -21.9740     2.6400    31.0210 ca         1 QSF       0.091000
     12 C14        -22.5960     4.6990    32.1160 ca         1 QSF      -0.135000
     13 C18        -21.9920     4.6530    29.7650 ca         1 QSF      -0.132300
     14 N2         -22.5420     6.7000    30.6040 ns         1 QSF      -0.138000
     15 C12        -22.2480     6.9750    29.3020 c          1 QSF       0.585000
     16 O1         -22.2900     8.0660    28.7660 o          1 QSF      -0.512000
     17 C1         -21.8790     5.6320    28.6150 c5         1 QSF      -0.167700
     18 C          -22.8920     5.3480    27.4980 c3         1 QSF      -0.077100
     19 C2         -20.4080     5.7410    28.1800 c          1 QSF       0.621100
     20 O          -19.5760     6.2310    28.9350 o          1 QSF      -0.564100
     21 C3         -18.7810     5.2630    26.4300 ca         1 QSF      -0.081000
     22 C11        -18.1620     6.4780    26.0370 ca         1 QSF      -0.003000
     23 C9         -18.0930     8.8670    25.7070 ca         1 QSF      -0.089000
     24 H1         -18.5870     3.1490    26.5680 h4         1 QSF       0.021100
     25 H2         -15.2500     5.0130    25.0070 h4         1 QSF       0.022100
     26 H3         -15.1560     7.4640    24.7150 ha         1 QSF       0.117000
     27 H4         -16.2600     9.6710    24.8890 ha         1 QSF       0.117000
     28 H5         -19.7820     7.8340    26.5000 ha         1 QSF       0.130000
     29 H6         -22.5240     2.7820    33.0880 ha         1 QSF       0.134000
     30 H7         -21.4590     2.7440    28.9270 ha         1 QSF       0.133000
     31 H8         -22.9120     5.2370    33.0000 ha         1 QSF       0.130000
     32 H9         -22.8310     7.4090    31.2620 hn         1 QSF       0.180000
     33 H10        -23.9010     5.3640    27.9100 hc         1 QSF       0.053367
     34 H11        -22.8240     6.1030    26.7160 hc         1 QSF       0.053367
     35 H12        -22.7310     4.3590    27.0670 hc         1 QSF       0.053367
     36 H13        -20.8200     4.8100    26.4100 hn         1 QSF       0.162000
     37 H14        -18.5700     9.8370    25.7680 ha         1 QSF       0.119000
     38 N          -20.1020     5.2570    26.9570 ns         1 QSF      -0.162000
     39 CL         -21.7040     0.9100    31.1090 cl         1 QSF      -0.204000
@<TRIPOS>BOND
     1     1     2 ar  
     2     1     3 ar  
     3     2    21 ar  
     4     2    24 1   
     5     3     4 ar  
     6     3    25 1   
     7     4     5 ar  
     8     4    22 ar  
     9     5     6 ar  
    10     5    26 1   
    11     6    23 ar  
    12     6    27 1   
    13     7    22 ar  
    14     7    23 ar  
    15     7    28 1   
    16     8    12 ar  
    17     8    13 ar  
    18     8    14 1   
    19     9    11 ar  
    20     9    12 ar  
    21     9    29 1   
    22    10    11 ar  
    23    10    13 ar  
    24    10    30 1   
    25    11    39 1   
    26    12    31 1   
    27    13    17 1   
    28    14    15 1   
    29    14    32 1   
    30    15    16 2   
    31    15    17 1   
    32    17    18 1   
    33    17    19 1   
    34    18    33 1   
    35    18    34 1   
    36    18    35 1   
    37    19    20 2   
    38    19    38 1   
    39    21    22 ar  
    40    21    38 1   
    41    23    37 1   
    42    36    38 1   
@<TRIPOS>SUBSTRUCTURE
     1 QSF         1 TEMP              0 ****  ****    0 ROOT
