@<TRIPOS>MOLECULE
QSG
  110   115     1     0     0
SMALL
No Charge or Current Charge


@<TRIPOS>ATOM
      1 N2          66.9750    30.5170     5.2420 ns         1 QSG      -0.486400
      2 N8          76.7100    24.6890    -0.0770 nc         1 QSG      -0.350500
      3 N7          75.9550    25.1540     0.8860 nd         1 QSG      -0.200300
      4 N6          75.1110    26.0830     0.3310 na         1 QSG       0.130300
      5 N9          78.0400    26.0290    -2.9310 ns         1 QSG      -0.486400
      6 N5          68.1440    29.5950     2.2990 nc         1 QSG      -0.350500
      7 N4          68.9490    28.7040     1.7770 nd         1 QSG      -0.200300
      8 N3          70.0020    28.5470     2.6440 na         1 QSG       0.130300
      9 C21         76.3590    25.3140    -1.2400 cc         1 QSG       0.175800
     10 C20         75.3530    26.2020    -1.0190 cd         1 QSG      -0.178000
     11 C30         85.0920    31.0610    -6.2980 c6         1 QSG       0.148800
     12 C29         84.0830    32.0370    -5.6020 c6         1 QSG       0.186800
     13 C31         84.3390    30.3910    -7.5010 c6         1 QSG       0.144300
     14 C27         82.1870    30.5610    -6.4070 c6         1 QSG       0.317700
     15 C28         82.8010    31.2740    -5.1550 c6         1 QSG       0.088300
     16 C32         85.2070    29.3630    -8.2920 c3         1 QSG       0.165600
     17 C26         80.9390    28.5930    -5.3840 c          1 QSG       0.585600
     18 C25         79.5180    27.9590    -5.2850 c3         1 QSG       0.071800
     19 C24         78.9330    28.1620    -3.8600 c3         1 QSG       0.099800
     20 C23         77.7300    27.2010    -3.5950 c          1 QSG       0.580100
     21 C16         72.6740    26.7830     0.6620 c5         1 QSG       0.117800
     22 C19         72.0730    28.1130     1.2230 c5         1 QSG       0.117800
     23 C17         74.1500    26.8130     1.1620 c5         1 QSG       0.040800
     24 C18         74.3780    28.3420     1.2250 c5         1 QSG       0.142100
     25 C15         70.7170    26.2440     1.7800 c5         1 QSG       0.142100
     26 C14         71.1080    27.6330     2.3460 c5         1 QSG       0.040800
     27 C11         67.9970    31.0600     4.3360 c3         1 QSG       0.095200
     28 C12         68.6770    30.0140     3.4860 cc         1 QSG       0.175800
     29 C13         69.8500    29.3730     3.7340 cd         1 QSG      -0.178000
     30 C4          60.8160    26.0420     9.9770 c6         1 QSG       0.148800
     31 C3          60.2040    27.4470     9.6820 c6         1 QSG       0.186800
     32 C5          62.1980    26.2460    10.6830 c6         1 QSG       0.144300
     33 C1          62.5600    28.4160     9.6670 c6         1 QSG       0.317700
     34 C2          61.2030    28.3430     8.8870 c6         1 QSG       0.088300
     35 C6          62.9270    24.8930    10.9820 c3         1 QSG       0.165600
     36 C7          64.7100    29.6930     9.4290 c          1 QSG       0.585600
     37 C8          65.7280    30.2650     8.3930 c3         1 QSG       0.071800
     38 C9          65.9820    29.3160     7.1780 c3         1 QSG       0.099800
     39 C10         67.2370    29.7870     6.3820 c          1 QSG       0.580100
     40 O31         83.1520    29.6960    -7.0360 os         1 QSG      -0.447000
     41 O28         81.8660    32.1870    -4.5200 oh         1 QSG      -0.730500
     42 O29         84.6590    32.7240    -4.4780 oh         1 QSG      -0.641000
     43 O32         86.4250    29.9400    -8.7980 oh         1 QSG      -0.716000
     44 O23         76.5740    27.4770    -3.8970 o          1 QSG      -0.609100
     45 O24         78.5770    29.5590    -3.6800 oh         1 QSG      -0.652000
     46 O25         78.5880    28.4600    -6.2920 oh         1 QSG      -0.651500
     47 O18         73.1690    28.8220     1.8430 os         1 QSG      -0.426000
     48 O15         71.9830    25.7120     1.3440 os         1 QSG      -0.426000
     49 O5          63.0680    27.0850     9.8750 os         1 QSG      -0.447000
     50 O2          60.6180    29.6550     8.6640 oh         1 QSG      -0.730500
     51 O3          58.9750    27.3260     8.9470 oh         1 QSG      -0.641000
     52 O6          64.1740    25.0610    11.6870 oh         1 QSG      -0.716000
     53 O10         68.3800    29.4940     6.7130 o          1 QSG      -0.609100
     54 O9          64.7930    29.1750     6.3390 oh         1 QSG      -0.652000
     55 O8          65.3510    31.5950     7.9340 oh         1 QSG      -0.651500
     56 HN2         65.9970    30.7210     5.0630 hn         1 QSG       0.333500
     57 HN9         79.0120    25.8760    -2.6820 hn         1 QSG       0.333500
     58 HC20        74.8280    26.8750    -1.6840 h4         1 QSG       0.175000
     59 HC30        85.9230    31.6620    -6.6980 h1         1 QSG       0.057700
     60 HC29        83.7790    32.7840    -6.3520 h1         1 QSG       0.036700
     61 HC31        84.0280    31.1740    -8.2090 h1         1 QSG       0.050700
     62 HC27        81.8860    31.3350    -7.1310 h2         1 QSG       0.059200
     63 HC28        83.1040    30.4910    -4.4430 h1         1 QSG       0.086200
     64 H32A        85.4360    28.5130    -7.6340 h1         1 QSG       0.033200
     65 H32B        84.6010    28.9780    -9.1230 h1         1 QSG       0.033200
     66 HC25        79.6700    26.8800    -5.4310 h1         1 QSG       0.075200
     67 HC24        79.7110    27.8870    -3.1330 h1         1 QSG       0.095200
     68 HC16        72.5630    26.6980    -0.4280 h1         1 QSG       0.088700
     69 HC19        71.5930    28.7220     0.4430 h1         1 QSG       0.088700
     70 HC17        74.1960    26.4140     2.1830 h1         1 QSG       0.108200
     71 H18B        75.2500    28.6200     1.8320 h1         1 QSG       0.075200
     72 H18A        74.4820    28.7900     0.2260 h1         1 QSG       0.075200
     73 H15B        70.2670    25.5850     2.5350 h1         1 QSG       0.075200
     74 H15A        70.0370    26.3160     0.9200 h1         1 QSG       0.075200
     75 HC14        71.6770    27.4750     3.2710 h1         1 QSG       0.108200
     76 H11B        67.5230    31.8020     3.6810 h1         1 QSG       0.064450
     77 H11A        68.7550    31.5850     4.9330 h1         1 QSG       0.064450
     78 HC13        70.5510    29.4400     4.5570 h4         1 QSG       0.175000
     79 HC4         60.1470    25.5140    10.6730 h1         1 QSG       0.057700
     80 HC3         60.0040    27.9360    10.6480 h1         1 QSG       0.036700
     81 HC5         62.0300    26.7480    11.6480 h1         1 QSG       0.050700
     82 HC1         62.4110    28.9180    10.6360 h2         1 QSG       0.059200
     83 HC2         61.4050    27.8540     7.9210 h1         1 QSG       0.086200
     84 HC6A        62.2470    24.2630    11.5710 h1         1 QSG       0.033200
     85 HC6B        63.1030    24.3770    10.0280 h1         1 QSG       0.033200
     86 HC8         66.6780    30.3320     8.9420 h1         1 QSG       0.075200
     87 HC9         66.2580    28.3340     7.5880 h1         1 QSG       0.095200
     88 HO28        81.0800    31.6550    -4.2470 ho         1 QSG       0.522000
     89 HO29        83.8790    32.9900    -3.9390 ho         1 QSG       0.459500
     90 HO32        86.8630    29.2500    -9.3520 ho         1 QSG       0.508500
     91 HO24        77.8790    29.7370    -4.3540 ho         1 QSG       0.470500
     92 HO25        78.7920    28.0110    -7.1450 ho         1 QSG       0.453000
     93 HO2         61.3090    30.2250     8.2500 ho         1 QSG       0.522000
     94 HO3         58.8080    28.2330     8.5980 ho         1 QSG       0.459500
     95 HO6         64.6000    24.1720    11.7340 ho         1 QSG       0.508500
     96 HO9         64.9880    28.5000     5.6480 ho         1 QSG       0.470500
     97 HO8         65.2520    32.1700     8.7280 ho         1 QSG       0.453000
     98 O7          64.8970    29.7660    10.6370 o          1 QSG      -0.580600
     99 N1          63.5750    29.1280     8.9050 ns         1 QSG      -0.492400
    100 C22         77.0550    25.0080    -2.5440 c3         1 QSG       0.095200
    101 O4          60.9310    25.2930     8.7450 oh         1 QSG      -0.693000
    102 O26         81.9240    28.0680    -4.8820 o          1 QSG      -0.580600
    103 N10         80.9940    29.7830    -6.0780 ns         1 QSG      -0.492400
    104 HN1         63.5450    29.0820     7.8910 hn         1 QSG       0.334000
    105 H22B        76.3020    24.9110    -3.3380 h1         1 QSG       0.064450
    106 H22A        77.5690    24.0410    -2.4610 h1         1 QSG       0.064450
    107 HO4         60.0960    25.4840     8.2550 ho         1 QSG       0.504500
    108 O30         85.5980    30.0740    -5.3620 oh         1 QSG      -0.693000
    109 HN10        80.1070    30.1030    -6.4480 hn         1 QSG       0.334000
    110 HO30        86.4030    29.6840    -5.7720 ho         1 QSG       0.504500
@<TRIPOS>BOND
     1     1    27 1   
     2     1    39 1   
     3     1    56 1   
     4     2     3 2   
     5     2     9 1   
     6     3     4 1   
     7     4    10 1   
     8     4    23 1   
     9     5    20 1   
    10     5    57 1   
    11     5   100 1   
    12     6     7 2   
    13     6    28 1   
    14     7     8 1   
    15     8    26 1   
    16     8    29 1   
    17     9    10 2   
    18     9   100 1   
    19    10    58 1   
    20    11    12 1   
    21    11    13 1   
    22    11    59 1   
    23    11   108 1   
    24    12    15 1   
    25    12    42 1   
    26    12    60 1   
    27    13    16 1   
    28    13    40 1   
    29    13    61 1   
    30    14    15 1   
    31    14    40 1   
    32    14    62 1   
    33    14   103 1   
    34    15    41 1   
    35    15    63 1   
    36    16    43 1   
    37    16    64 1   
    38    16    65 1   
    39    17    18 1   
    40    17   102 2   
    41    17   103 1   
    42    18    19 1   
    43    18    46 1   
    44    18    66 1   
    45    19    20 1   
    46    19    45 1   
    47    19    67 1   
    48    20    44 2   
    49    21    22 1   
    50    21    23 1   
    51    21    48 1   
    52    21    68 1   
    53    22    26 1   
    54    22    47 1   
    55    22    69 1   
    56    23    24 1   
    57    23    70 1   
    58    24    47 1   
    59    24    71 1   
    60    24    72 1   
    61    25    26 1   
    62    25    48 1   
    63    25    73 1   
    64    25    74 1   
    65    26    75 1   
    66    27    28 1   
    67    27    76 1   
    68    27    77 1   
    69    28    29 2   
    70    29    78 1   
    71    30    31 1   
    72    30    32 1   
    73    30    79 1   
    74    30   101 1   
    75    31    34 1   
    76    31    51 1   
    77    31    80 1   
    78    32    35 1   
    79    32    49 1   
    80    32    81 1   
    81    33    34 1   
    82    33    49 1   
    83    33    82 1   
    84    33    99 1   
    85    34    50 1   
    86    34    83 1   
    87    35    52 1   
    88    35    84 1   
    89    35    85 1   
    90    36    37 1   
    91    36    98 2   
    92    36    99 1   
    93    37    38 1   
    94    37    55 1   
    95    37    86 1   
    96    38    39 1   
    97    38    54 1   
    98    38    87 1   
    99    39    53 2   
   100    41    88 1   
   101    42    89 1   
   102    43    90 1   
   103    45    91 1   
   104    46    92 1   
   105    50    93 1   
   106    51    94 1   
   107    52    95 1   
   108    54    96 1   
   109    55    97 1   
   110    99   104 1   
   111   100   105 1   
   112   100   106 1   
   113   101   107 1   
   114   103   109 1   
   115   108   110 1   
@<TRIPOS>SUBSTRUCTURE
     1 QSG         1 TEMP              0 ****  ****    0 ROOT
