@<TRIPOS>MOLECULE
QSG
  110   115     1     0     0
SMALL
bcc


@<TRIPOS>ATOM
      1 N2          67.5220    29.4590     6.2080 ns         1 QSG      -0.553400
      2 N8          78.7460    26.5890     1.3290 nc         1 QSG      -0.350500
      3 N7          78.1140    27.2040     2.2640 nd         1 QSG      -0.200300
      4 N6          76.9030    27.4970     1.8160 na         1 QSG       0.108900
      5 N9          79.2340    26.6080    -1.8430 ns         1 QSG      -0.553400
      6 N5          69.6360    28.7520     4.2620 nc         1 QSG      -0.350500
      7 N4          70.7720    28.2980     3.8550 nd         1 QSG      -0.200300
      8 N3          71.7090    28.7680     4.6590 na         1 QSG       0.108900
      9 C21         77.9440    26.4750     0.2470 cc         1 QSG       0.241100
     10 C20         76.7450    27.0650     0.5510 cd         1 QSG      -0.210600
     11 C30         83.4230    31.1780    -8.5080 c6         1 QSG       0.125600
     12 C29         82.0530    31.6640    -8.0500 c6         1 QSG       0.163600
     13 C31         83.2790    29.7370    -9.0100 c6         1 QSG       0.121100
     14 C27         81.4530    29.3020    -7.6010 c6         1 QSG       0.294500
     15 C28         81.4890    30.7150    -7.0010 c6         1 QSG       0.065100
     16 C32         84.5970    29.0980    -9.4170 c3         1 QSG       0.142400
     17 C26         81.3480    28.1000    -5.4490 c          1 QSG       0.652600
     18 C25         80.4110    27.2710    -4.5710 c3         1 QSG       0.048600
     19 C24         79.7950    28.2450    -3.5500 c3         1 QSG       0.076600
     20 C23         78.7530    27.5100    -2.7040 c          1 QSG       0.647100
     21 C16         74.6400    27.4480     2.9010 c5         1 QSG       0.094600
     22 C19         73.6280    28.6030     3.0520 c5         1 QSG       0.094600
     23 C17         75.9650    28.1770     2.6760 c5         1 QSG       0.011500
     24 C18         75.4990    29.5340     2.1410 c5         1 QSG       0.118900
     25 C15         73.3860    26.9310     4.7330 c5         1 QSG       0.118900
     26 C14         73.0980    28.4130     4.4740 c5         1 QSG       0.011500
     27 C11         68.7230    30.2430     6.0550 c3         1 QSG       0.095200
     28 C12         69.8280    29.5200     5.3550 cc         1 QSG       0.241100
     29 C13         71.1720    29.5350     5.6250 cd         1 QSG      -0.210600
     30 C4          58.8990    27.9250     8.4440 c6         1 QSG       0.125600
     31 C3          59.4540    27.8710     9.8610 c6         1 QSG       0.163600
     32 C5          59.8310    27.1140     7.5380 c6         1 QSG       0.121100
     33 C1          61.7170    27.5340     8.8800 c6         1 QSG       0.294500
     34 C2          60.9010    28.3500     9.8870 c6         1 QSG       0.065100
     35 C6          59.3860    27.1250     6.0920 c3         1 QSG       0.142400
     36 C7          64.1240    27.2220     8.5920 c          1 QSG       0.652600
     37 C8          65.4710    27.9460     8.5350 c3         1 QSG       0.048600
     38 C9          66.0640    27.7540     7.1410 c3         1 QSG       0.076600
     39 C10         67.4200    28.4630     7.0920 c          1 QSG       0.647100
     40 O31         82.7290    28.8950    -8.0150 os         1 QSG      -0.400600
     41 O28         80.1890    31.1430    -6.6770 oh         1 QSG      -0.608300
     42 O29         82.1600    32.9810    -7.5790 oh         1 QSG      -0.578800
     43 O32         85.1950    29.9180   -10.3920 oh         1 QSG      -0.593800
     44 O23         77.5640    27.7430    -2.8540 o          1 QSG      -0.609100
     45 O24         79.1970    29.3410    -4.1790 oh         1 QSG      -0.589800
     46 O25         79.3680    26.6500    -5.2710 oh         1 QSG      -0.589300
     47 O18         74.3420    29.8090     2.8950 os         1 QSG      -0.379600
     48 O15         74.6270    26.7130     4.1040 os         1 QSG      -0.379600
     49 O5          61.1490    27.6220     7.5960 os         1 QSG      -0.400600
     50 O2          61.3810    28.1650    11.1970 oh         1 QSG      -0.608300
     51 O3          58.6300    28.6240    10.7090 oh         1 QSG      -0.578800
     52 O6          60.1910    26.2330     5.3600 oh         1 QSG      -0.593800
     53 O10         68.3250    28.1120     7.8340 o          1 QSG      -0.609100
     54 O9          65.1440    28.2350     6.1950 oh         1 QSG      -0.589800
     55 O8          65.3770    29.3220     8.7950 oh         1 QSG      -0.589300
     56 HN2         66.7160    29.6910     5.6510 hn         1 QSG       0.333500
     57 HN9         80.2300    26.5360    -1.7070 hn         1 QSG       0.333500
     58 HC20        75.8370    27.1900    -0.0140 h4         1 QSG       0.193000
     59 HC30        83.7380    31.8020    -9.3550 h1         1 QSG       0.057700
     60 HC29        81.3940    31.6190    -8.9330 h1         1 QSG       0.036700
     61 HC31        82.6140    29.7580    -9.8900 h1         1 QSG       0.050700
     62 HC27        80.7680    29.3250    -8.4620 h2         1 QSG       0.059200
     63 HC28        82.1420    30.7280    -6.1230 h1         1 QSG       0.086200
     64 H32A        85.2340    28.9810    -8.5310 h1         1 QSG       0.033200
     65 H32B        84.3950    28.0900    -9.8000 h1         1 QSG       0.033200
     66 HC25        81.0340    26.5470    -4.0330 h1         1 QSG       0.075200
     67 HC24        80.6000    28.6100    -2.9040 h1         1 QSG       0.095200
     68 HC16        74.3870    26.8030     2.0520 h1         1 QSG       0.088700
     69 HC19        72.8230    28.5290     2.3150 h1         1 QSG       0.088700
     70 HC17        76.4720    28.3100     3.6320 h1         1 QSG       0.108200
     71 H18B        76.2300    30.3250     2.3050 h1         1 QSG       0.075200
     72 H18A        75.2830    29.4780     1.0670 h1         1 QSG       0.075200
     73 H15B        73.4770    26.6980     5.7930 h1         1 QSG       0.075200
     74 H15A        72.5930    26.3070     4.3030 h1         1 QSG       0.075200
     75 HC14        73.6780    29.0300     5.1610 h1         1 QSG       0.108200
     76 H11B        68.4490    31.1340     5.4900 h1         1 QSG       0.064450
     77 H11A        69.0800    30.5870     7.0280 h1         1 QSG       0.064450
     78 HC13        71.7580    30.0100     6.3930 h4         1 QSG       0.193000
     79 HC4         57.9150    27.4370     8.4410 h1         1 QSG       0.057700
     80 HC3         59.4550    26.8090    10.1580 h1         1 QSG       0.036700
     81 HC5         59.8130    26.0710     7.8970 h1         1 QSG       0.050700
     82 HC1         61.7390    26.4870     9.2130 h2         1 QSG       0.059200
     83 HC2         60.9370    29.4100     9.5950 h1         1 QSG       0.086200
     84 HC6A        58.3260    26.8350     6.0640 h1         1 QSG       0.033200
     85 HC6B        59.4530    28.1460     5.6970 h1         1 QSG       0.033200
     86 HC8         66.1280    27.4410     9.2520 h1         1 QSG       0.075200
     87 HC9         66.2620    26.6850     7.0060 h1         1 QSG       0.095200
     88 HO28        79.9060    30.6950    -5.8700 ho         1 QSG       0.423000
     89 HO29        81.2860    33.2590    -7.2840 ho         1 QSG       0.420500
     90 HO32        86.0510    29.5450   -10.6190 ho         1 QSG       0.409500
     91 HO24        78.2540    29.1440    -4.2740 ho         1 QSG       0.431500
     92 HO25        79.6740    25.8030    -5.6100 ho         1 QSG       0.414000
     93 HO2         62.1760    28.6950    11.3170 ho         1 QSG       0.423000
     94 HO3         58.9920    28.5690    11.6000 ho         1 QSG       0.420500
     95 HO6         59.9310    26.2840     4.4360 ho         1 QSG       0.409500
     96 HO9         65.2090    27.7060     5.3930 ho         1 QSG       0.431500
     97 HO8         65.4690    29.4710     9.7410 ho         1 QSG       0.414000
     98 O7          64.0710    26.0120     8.4590 o          1 QSG      -0.580600
     99 N1          63.0580    28.0130     8.8150 ns         1 QSG      -0.559400
    100 C22         78.3810    25.7910    -1.0050 c3         1 QSG       0.095200
    101 O4          58.8040    29.2710     8.0430 oh         1 QSG      -0.570800
    102 O26         82.3850    28.5370    -4.9810 o          1 QSG      -0.580600
    103 N10         80.9050    28.3330    -6.6970 ns         1 QSG      -0.559400
    104 HN1         63.2180    29.0110     8.8230 hn         1 QSG       0.334000
    105 H22B        77.5110    25.4740    -1.5790 h1         1 QSG       0.064450
    106 H22A        78.9420    24.8930    -0.7510 h1         1 QSG       0.064450
    107 HO4         58.0990    29.3590     7.3960 ho         1 QSG       0.405500
    108 O30         84.3270    31.2810    -7.4350 oh         1 QSG      -0.570800
    109 HN10        80.0360    27.8940    -6.9590 hn         1 QSG       0.334000
    110 HO30        85.2220    31.2940    -7.7870 ho         1 QSG       0.405500
@<TRIPOS>BOND
     1     1    27 1   
     2     1    39 1   
     3     1    56 1   
     4     2     3 2   
     5     2     9 1   
     6     3     4 1   
     7     4    10 1   
     8     4    23 1   
     9     5    20 1   
    10     5    57 1   
    11     5   100 1   
    12     6     7 2   
    13     6    28 1   
    14     7     8 1   
    15     8    26 1   
    16     8    29 1   
    17     9    10 2   
    18     9   100 1   
    19    10    58 1   
    20    11    12 1   
    21    11    13 1   
    22    11    59 1   
    23    11   108 1   
    24    12    15 1   
    25    12    42 1   
    26    12    60 1   
    27    13    16 1   
    28    13    40 1   
    29    13    61 1   
    30    14    15 1   
    31    14    40 1   
    32    14    62 1   
    33    14   103 1   
    34    15    41 1   
    35    15    63 1   
    36    16    43 1   
    37    16    64 1   
    38    16    65 1   
    39    17    18 1   
    40    17   102 2   
    41    17   103 1   
    42    18    19 1   
    43    18    46 1   
    44    18    66 1   
    45    19    20 1   
    46    19    45 1   
    47    19    67 1   
    48    20    44 2   
    49    21    22 1   
    50    21    23 1   
    51    21    48 1   
    52    21    68 1   
    53    22    26 1   
    54    22    47 1   
    55    22    69 1   
    56    23    24 1   
    57    23    70 1   
    58    24    47 1   
    59    24    71 1   
    60    24    72 1   
    61    25    26 1   
    62    25    48 1   
    63    25    73 1   
    64    25    74 1   
    65    26    75 1   
    66    27    28 1   
    67    27    76 1   
    68    27    77 1   
    69    28    29 2   
    70    29    78 1   
    71    30    31 1   
    72    30    32 1   
    73    30    79 1   
    74    30   101 1   
    75    31    34 1   
    76    31    51 1   
    77    31    80 1   
    78    32    35 1   
    79    32    49 1   
    80    32    81 1   
    81    33    34 1   
    82    33    49 1   
    83    33    82 1   
    84    33    99 1   
    85    34    50 1   
    86    34    83 1   
    87    35    52 1   
    88    35    84 1   
    89    35    85 1   
    90    36    37 1   
    91    36    98 2   
    92    36    99 1   
    93    37    38 1   
    94    37    55 1   
    95    37    86 1   
    96    38    39 1   
    97    38    54 1   
    98    38    87 1   
    99    39    53 2   
   100    41    88 1   
   101    42    89 1   
   102    43    90 1   
   103    45    91 1   
   104    46    92 1   
   105    50    93 1   
   106    51    94 1   
   107    52    95 1   
   108    54    96 1   
   109    55    97 1   
   110    99   104 1   
   111   100   105 1   
   112   100   106 1   
   113   101   107 1   
   114   103   109 1   
   115   108   110 1   
@<TRIPOS>SUBSTRUCTURE
     1 QSG         1 TEMP              0 ****  ****    0 ROOT
