@<TRIPOS>MOLECULE
QSH
   15    15     1     0     0
SMALL
bcc


@<TRIPOS>ATOM
      1 C01        153.6220    48.5290   123.3650 ca         1 QSH      -0.031000
      2 C02        153.2420    48.7690   124.6740 ca         1 QSH      -0.102400
      3 C05        152.2490    46.5760   123.3310 ca         1 QSH      -0.031000
      4 C06        153.1270    47.4320   122.6740 ca         1 QSH      -0.172600
      5 C10        153.5370    47.1790   121.2240 c          1 QSH       0.932200
      6 BR1        153.9460    50.2830   125.5660 br         1 QSH      -0.145600
      7 C03        152.3550    47.9270   125.3510 ca         1 QSH       0.158100
      8 O09        151.9370    48.0940   126.6060 oh         1 QSH      -0.491100
      9 C04        151.8780    46.8210   124.6400 ca         1 QSH      -0.102400
     10 BR2        150.6920    45.6400   125.5120 br         1 QSH      -0.145600
     11 O11        153.0080    46.2000   120.6670 o          1 QSH      -0.816800
     12 O12        154.3570    47.9790   120.7400 o          1 QSH      -0.816800
     13 H1         154.3100    49.1990   122.8670 ha         1 QSH       0.168500
     14 H2         151.8570    45.7160   122.8050 ha         1 QSH       0.168500
     15 H3         152.2920    48.8970   127.0100 ho         1 QSH       0.428000
@<TRIPOS>BOND
     1     1     2 ar  
     2     1     4 ar  
     3     1    13 1   
     4     2     6 1   
     5     2     7 ar  
     6     3     4 ar  
     7     3     9 ar  
     8     3    14 1   
     9     4     5 1   
    10     5    11 1   
    11     5    12 1   
    12     7     8 1   
    13     7     9 ar  
    14     8    15 1   
    15     9    10 1   
@<TRIPOS>SUBSTRUCTURE
     1 QSH         1 TEMP              0 ****  ****    0 ROOT
