@<TRIPOS>MOLECULE
QSH
   15    15     1     0     0
SMALL
No Charge or Current Charge


@<TRIPOS>ATOM
      1 C01        153.6210    48.5480   123.3740 ca         1 QSH      -0.013000
      2 C02        153.2310    48.7820   124.7050 ca         1 QSH      -0.102400
      3 C05        152.2280    46.5540   123.3190 ca         1 QSH      -0.013000
      4 C06        153.1240    47.4310   122.6650 ca         1 QSH      -0.172600
      5 C10        153.5430    47.1770   121.2320 c          1 QSH       0.721600
      6 Br1        153.9330    50.3130   125.6260 br         1 QSH      -0.145600
      7 C03        152.3390    47.9040   125.3470 ca         1 QSH       0.158100
      8 O09        151.9640    48.1380   126.6390 oh         1 QSH      -0.530100
      9 C04        151.8380    46.7880   124.6500 ca         1 QSH      -0.102400
     10 Br2        150.6180    45.5650   125.4880 br         1 QSH      -0.145600
     11 O11        153.0900    46.1990   120.6560 o          1 QSH      -0.711500
     12 O12        154.3200    47.9610   120.7050 o          1 QSH      -0.711500
     13 H1         154.3120    49.2400   122.8960 ha         1 QSH       0.150500
     14 H2         151.8290    45.6860   122.7970 ha         1 QSH       0.150500
     15 H3         152.4210    48.9550   126.9350 ho         1 QSH       0.467000
@<TRIPOS>BOND
     1     1     2 ar  
     2     1     4 ar  
     3     1    13 1   
     4     2     6 1   
     5     2     7 ar  
     6     3     4 ar  
     7     3     9 ar  
     8     3    14 1   
     9     4     5 1   
    10     5    11 1   
    11     5    12 1   
    12     7     8 1   
    13     7     9 ar  
    14     8    15 1   
    15     9    10 1   
@<TRIPOS>SUBSTRUCTURE
     1 QSH         1 TEMP              0 ****  ****    0 ROOT
