@<TRIPOS>MOLECULE
QSI
   54    56     1     0     0
SMALL
No Charge or Current Charge


@<TRIPOS>ATOM
      1 N           46.2630    32.1560    14.8840 n8         1 QSI      -1.029200
      2 CA          45.1610    31.6300    15.7690 c3         1 QSI       0.081500
      3 CB          43.8220    32.2930    15.3460 c3         1 QSI      -0.072400
      4 CG          42.6310    32.0260    16.3050 c3         1 QSI      -0.165400
      5 CD          41.3490    32.6710    15.7830 c          1 QSI       0.608100
      6 OE1         40.6700    32.1690    14.9030 o          1 QSI      -0.644100
      7 NE2         40.9860    33.8400    16.3450 nt         1 QSI      -0.585000
      8 C           45.0380    30.0640    15.8220 c          1 QSI       0.631100
      9 O           44.6590    29.4570    16.8130 o          1 QSI      -0.540100
     10 N10         45.4410    29.4540    14.6830 ns         1 QSI      -0.628300
     11 S           45.3350    27.8580    14.2850 s6         1 QSI       1.475500
     12 O1S         45.8330    27.0530    15.4050 o          1 QSI      -0.545500
     13 O2S         45.8760    27.6990    12.9320 o          1 QSI      -0.545500
     14 O5          43.6990    27.7450    14.2430 os         1 QSI      -0.588700
     15 C5          43.0680    27.8800    12.9530 c3         1 QSI       0.211600
     16 C4          41.5280    27.8550    13.1350 c5         1 QSI       0.158300
     17 O4          41.0990    26.6760    13.8690 os         1 QSI      -0.435000
     18 C1          39.9980    27.0310    14.7460 c5         1 QSI       0.312300
     19 N9          40.4320    26.8960    16.1380 na         1 QSI      -0.311300
     20 C9          39.6900    27.0780    17.2760 ca         1 QSI       0.128500
     21 N3          38.4010    27.4390    17.4370 nb         1 QSI      -0.219000
     22 C2          37.9650    27.5270    18.7160 ca         1 QSI       0.174900
     23 N1          38.6890    27.2890    19.8350 nb         1 QSI      -0.301000
     24 C6          39.9680    26.9330    19.6420 ca         1 QSI       0.444900
     25 N6          40.6950    26.6870    20.7640 nv         1 QSI      -1.069900
     26 C7          40.5090    26.8130    18.3440 ca         1 QSI      -0.096600
     27 N7          41.7910    26.4460    17.9520 nc         1 QSI      -0.554100
     28 C8          41.7030    26.5100    16.6090 cd         1 QSI       0.428700
     29 C10         39.5620    28.4790    14.3260 c5         1 QSI       0.101300
     30 O2          38.6730    28.5210    13.1960 oh         1 QSI      -0.710000
     31 C3          40.9420    29.0640    13.9300 c5         1 QSI       0.107300
     32 O3          40.7880    30.2550    13.1390 oh         1 QSI      -0.761000
     33 HN1         47.1770    31.8830    15.2710 hn         1 QSI       0.421500
     34 HN2         46.2890    33.1830    14.9410 hn         1 QSI       0.421500
     35 HA          45.3850    31.9530    16.7960 h1         1 QSI       0.059700
     36 HB1         43.9670    33.3780    15.2680 hc         1 QSI       0.062700
     37 HB2         43.5570    31.9420    14.3400 hc         1 QSI       0.062700
     38 HG1         42.4580    30.9480    16.3860 hc         1 QSI       0.077700
     39 HG2         42.8840    32.4430    17.2880 hc         1 QSI       0.077700
     40 HN21        41.5510    34.2530    17.0710 hn         1 QSI       0.325000
     41 HN22        40.1440    34.2960    16.0270 hn         1 QSI       0.325000
     42 HN0         45.7620    30.0200    13.9190 hn         1 QSI       0.376500
     43 H5'1        43.3450    28.8260    12.4680 h1         1 QSI       0.070200
     44 H5'2        43.3540    27.0560    12.2850 h1         1 QSI       0.070200
     45 H4          41.0750    27.8110    12.1350 h1         1 QSI       0.083700
     46 H1          39.1640    26.3280    14.6210 h2         1 QSI       0.126700
     47 H2          36.9250    27.8170    18.8580 h5         1 QSI       0.045100
     48 HN61        41.5830    26.2080    20.6340 hn         1 QSI       0.506500
     49 HN62        40.1960    26.4920    21.6280 hn         1 QSI       0.506500
     50 H8          42.5090    26.2760    15.9230 h5         1 QSI       0.088800
     51 H6          39.1280    29.0260    15.1750 h1         1 QSI       0.078700
     52 HO2         39.0250    29.2750    12.6570 ho         1 QSI       0.530000
     53 H3          41.5520    29.2660    14.8230 h1         1 QSI       0.056700
     54 HO3         40.7160    31.0250    13.7890 ho         1 QSI       0.566000
@<TRIPOS>BOND
     1     1     2 1   
     2     1    33 1   
     3     1    34 1   
     4     2     3 1   
     5     2     8 1   
     6     2    35 1   
     7     3     4 1   
     8     3    36 1   
     9     3    37 1   
    10     4     5 1   
    11     4    38 1   
    12     4    39 1   
    13     5     6 2   
    14     5     7 1   
    15     7    40 1   
    16     7    41 1   
    17     8     9 2   
    18     8    10 1   
    19    10    11 1   
    20    10    42 1   
    21    11    12 2   
    22    11    13 2   
    23    11    14 1   
    24    14    15 1   
    25    15    16 1   
    26    15    43 1   
    27    15    44 1   
    28    16    17 1   
    29    16    31 1   
    30    16    45 1   
    31    17    18 1   
    32    18    19 1   
    33    18    29 1   
    34    18    46 1   
    35    19    20 1   
    36    19    28 1   
    37    20    21 ar  
    38    20    26 ar  
    39    21    22 ar  
    40    22    23 ar  
    41    22    47 1   
    42    23    24 ar  
    43    24    25 1   
    44    24    26 ar  
    45    25    48 1   
    46    25    49 1   
    47    26    27 1   
    48    27    28 2   
    49    28    50 1   
    50    29    30 1   
    51    29    31 1   
    52    29    51 1   
    53    30    52 1   
    54    31    32 1   
    55    31    53 1   
    56    32    54 1   
@<TRIPOS>SUBSTRUCTURE
     1 QSI         1 TEMP              0 ****  ****    0 ROOT
