@<TRIPOS>MOLECULE
QSI
   54    56     1     0     0
SMALL
abcg2


@<TRIPOS>ATOM
      1 N           46.2860    31.8720    14.2760 n8         1 QSI      -1.029200
      2 CA          45.2560    31.7790    15.3080 c3         1 QSI       0.081500
      3 CB          43.9650    32.4550    14.8120 c3         1 QSI      -0.072400
      4 CG          42.8980    32.6090    15.9010 c3         1 QSI      -0.165400
      5 CD          41.6840    33.3250    15.3570 c          1 QSI       0.608100
      6 OE1         40.9350    32.7940    14.5230 o          1 QSI      -0.644100
      7 NE2         41.4620    34.5650    15.8030 nt         1 QSI      -0.585000
      8 C           44.9590    30.3180    15.6440 c          1 QSI       0.631100
      9 O           44.3820    29.9700    16.6520 o          1 QSI      -0.540100
     10 N10         45.3770    29.4470    14.6570 ns         1 QSI      -0.628300
     11 S           45.2090    27.8110    14.6640 s6         1 QSI       1.475500
     12 O1S         45.5550    27.2840    15.9440 o          1 QSI      -0.545500
     13 O2S         45.8680    27.3580    13.4760 o          1 QSI      -0.545500
     14 O5          43.6580    27.5880    14.5440 os         1 QSI      -0.588700
     15 C5          43.0130    27.7890    13.2470 c3         1 QSI       0.211600
     16 C4          41.5460    28.0370    13.4780 c5         1 QSI       0.158300
     17 O4          40.9680    26.9410    14.1980 os         1 QSI      -0.435000
     18 C1          39.9620    27.3980    15.0880 c5         1 QSI       0.312300
     19 N9          40.3150    27.0120    16.4470 na         1 QSI      -0.311300
     20 C9          39.4340    26.5430    17.3950 ca         1 QSI       0.128500
     21 N3          38.1170    26.3360    17.2750 nb         1 QSI      -0.219000
     22 C2          37.5850    25.8650    18.4020 ca         1 QSI       0.174900
     23 N1          38.1990    25.6020    19.5610 nb         1 QSI      -0.301000
     24 C6          39.5240    25.8210    19.6650 ca         1 QSI       0.444900
     25 N6          40.1380    25.5680    20.8310 nv         1 QSI      -1.069900
     26 C7          40.2020    26.3200    18.5360 ca         1 QSI      -0.096600
     27 N7          41.5270    26.6440    18.2980 nc         1 QSI      -0.554100
     28 C8          41.5520    27.0530    17.0530 cd         1 QSI       0.428700
     29 C10         39.8340    28.9130    14.8870 c5         1 QSI       0.101300
     30 O2          38.7910    29.1520    13.9580 oh         1 QSI      -0.710000
     31 C3          41.1920    29.2990    14.2670 c5         1 QSI       0.107300
     32 O3          41.1040    30.3890    13.3830 oh         1 QSI      -0.761000
     33 HN1         47.2120    31.7770    14.6800 hn         1 QSI       0.421500
     34 HN2         46.2490    32.7740    13.8170 hn         1 QSI       0.421500
     35 HA          45.5520    32.2430    16.2550 h1         1 QSI       0.059700
     36 HB1         44.2470    33.4450    14.4460 hc         1 QSI       0.062700
     37 HB2         43.5670    31.8940    13.9650 hc         1 QSI       0.062700
     38 HG1         42.5720    31.6310    16.2530 hc         1 QSI       0.077700
     39 HG2         43.3130    33.1500    16.7520 hc         1 QSI       0.077700
     40 HN21        42.0660    34.9980    16.4820 hn         1 QSI       0.325000
     41 HN22        40.6720    35.0900    15.4570 hn         1 QSI       0.325000
     42 HN0         45.8620    29.8800    13.8700 hn         1 QSI       0.376500
     43 H5'1        43.4500    28.6520    12.7450 h1         1 QSI       0.070200
     44 H5'2        43.1790    26.8910    12.6560 h1         1 QSI       0.070200
     45 H4          41.0840    28.1130    12.4870 h1         1 QSI       0.083700
     46 H1          39.0130    26.9120    14.8690 h2         1 QSI       0.126700
     47 H2          36.5180    25.6690    18.3810 h5         1 QSI       0.045100
     48 HN61        41.1350    25.6620    20.9170 hn         1 QSI       0.506500
     49 HN62        39.6190    25.1570    21.5900 hn         1 QSI       0.506500
     50 H8          42.4290    27.3750    16.5170 h5         1 QSI       0.088800
     51 H6          39.6390    29.4240    15.8330 h1         1 QSI       0.078700
     52 HO2         39.1000    29.8740    13.3860 ho         1 QSI       0.530000
     53 H3          41.9220    29.4850    15.0580 h1         1 QSI       0.056700
     54 HO3         41.1130    31.2440    13.8840 ho         1 QSI       0.566000
@<TRIPOS>BOND
     1     1     2 1   
     2     1    33 1   
     3     1    34 1   
     4     2     3 1   
     5     2     8 1   
     6     2    35 1   
     7     3     4 1   
     8     3    36 1   
     9     3    37 1   
    10     4     5 1   
    11     4    38 1   
    12     4    39 1   
    13     5     6 2   
    14     5     7 1   
    15     7    40 1   
    16     7    41 1   
    17     8     9 2   
    18     8    10 1   
    19    10    11 1   
    20    10    42 1   
    21    11    12 2   
    22    11    13 2   
    23    11    14 1   
    24    14    15 1   
    25    15    16 1   
    26    15    43 1   
    27    15    44 1   
    28    16    17 1   
    29    16    31 1   
    30    16    45 1   
    31    17    18 1   
    32    18    19 1   
    33    18    29 1   
    34    18    46 1   
    35    19    20 1   
    36    19    28 1   
    37    20    21 ar  
    38    20    26 ar  
    39    21    22 ar  
    40    22    23 ar  
    41    22    47 1   
    42    23    24 ar  
    43    24    25 1   
    44    24    26 ar  
    45    25    48 1   
    46    25    49 1   
    47    26    27 1   
    48    27    28 2   
    49    28    50 1   
    50    29    30 1   
    51    29    31 1   
    52    29    51 1   
    53    30    52 1   
    54    31    32 1   
    55    31    53 1   
    56    32    54 1   
@<TRIPOS>SUBSTRUCTURE
     1 QSI         1 TEMP              0 ****  ****    0 ROOT
