@<TRIPOS>MOLECULE
QSJ
   46    48     1     0     0
SMALL
bcc


@<TRIPOS>ATOM
      1 C4         -36.8070   -12.8550    18.7590 ca         1 QSJ       0.048600
      2 C5         -37.0750   -13.7980    17.7850 ca         1 QSJ      -0.104000
      3 C6         -36.0970   -14.7190    17.4010 ca         1 QSJ      -0.061800
      4 C7         -34.8430   -14.6530    18.0220 ca         1 QSJ       0.111100
      5 C10        -36.3500   -15.7240    16.3690 ce         1 QSJ      -0.094200
      6 C11        -37.5610   -16.2030    16.0570 cf         1 QSJ      -0.106200
      7 C12        -37.8550   -17.2040    15.0340 ca         1 QSJ      -0.050800
      8 C13        -39.1520   -17.7170    14.9540 ca         1 QSJ      -0.110000
      9 C14        -39.4950   -18.6810    14.0200 ca         1 QSJ      -0.122000
     10 O8         -33.8620   -15.5230    17.6530 os         1 QSJ      -0.340900
     11 C15        -38.5260   -19.1420    13.1440 ca         1 QSJ       0.030400
     12 C16        -37.2290   -18.6480    13.1910 ca         1 QSJ      -0.122000
     13 C17        -36.9040   -17.6850    14.1290 ca         1 QSJ      -0.110000
     14 C2         -34.5590   -13.7040    19.0080 ca         1 QSJ      -0.078300
     15 C20        -38.4390   -11.9320    20.4500 c5         1 QSJ       0.061000
     16 C21        -39.0080   -10.5140    20.5590 c5         1 QSJ       0.119100
     17 C23        -39.3730   -10.2390    19.1040 c5         1 QSJ       0.078100
     18 C25        -38.2410   -10.9260    18.3550 c          1 QSJ       0.680500
     19 C3         -35.5550   -12.8050    19.3610 ca         1 QSJ      -0.118000
     20 N19        -37.7990   -11.9250    19.1400 n          1 QSJ      -0.399000
     21 O27        -39.5390    -8.8990    18.7730 oh         1 QSJ      -0.563800
     22 O28        -38.0320    -9.5800    20.9340 oh         1 QSJ      -0.567800
     23 CL18       -38.9370   -20.3470    11.9700 cl         1 QSJ      -0.110400
     24 H1         -38.0470   -13.8100    17.3100 ha         1 QSJ       0.145000
     25 H2         -33.0640   -17.3660    17.9510 h1         1 QSJ       0.037033
     26 H3         -33.8370   -16.6800    19.3920 h1         1 QSJ       0.037033
     27 H4         -34.8340   -17.3260    18.0710 h1         1 QSJ       0.037033
     28 H5         -35.4760   -16.1050    15.8530 ha         1 QSJ       0.141000
     29 H6         -38.4270   -15.8600    16.6150 ha         1 QSJ       0.122000
     30 H7         -39.9110   -17.3590    15.6390 ha         1 QSJ       0.136000
     31 H8         -40.5050   -19.0660    13.9790 ha         1 QSJ       0.148000
     32 H9         -32.4170   -13.5020    18.9030 hc         1 QSJ       0.046700
     33 H10        -33.1470   -12.8190    20.3540 hc         1 QSJ       0.046700
     34 H11        -32.9680   -14.5600    20.1890 hc         1 QSJ       0.046700
     35 H12        -36.4800   -19.0060    12.4990 ha         1 QSJ       0.148000
     36 H13        -35.8900   -17.3060    14.1410 ha         1 QSJ       0.136000
     37 H14        -39.2290   -12.6870    20.4960 h1         1 QSJ       0.056200
     38 H15        -37.7160   -12.1500    21.2380 h1         1 QSJ       0.056200
     39 H16        -39.8760   -10.4940    21.2260 h1         1 QSJ       0.060700
     40 H17        -40.2860   -10.8120    18.8760 h1         1 QSJ       0.068700
     41 H18        -35.3550   -12.0460    20.1080 ha         1 QSJ       0.141000
     42 H19        -38.9800    -8.6980    18.0140 ho         1 QSJ       0.435000
     43 H20        -37.7550    -9.7760    21.8340 ho         1 QSJ       0.404000
     44 C1         -33.2030   -13.6440    19.6450 c3         1 QSJ      -0.040800
     45 C9         -33.9130   -16.7850    18.3070 c3         1 QSJ       0.125700
     46 O26        -37.8350   -10.6170    17.2500 o          1 QSJ      -0.603500
@<TRIPOS>BOND
     1     1     2 ar  
     2     1    19 ar  
     3     1    20 1   
     4     2     3 ar  
     5     2    24 1   
     6     3     4 ar  
     7     3     5 1   
     8     4    10 1   
     9     4    14 ar  
    10     5     6 2   
    11     5    28 1   
    12     6     7 1   
    13     6    29 1   
    14     7     8 ar  
    15     7    13 ar  
    16     8     9 ar  
    17     8    30 1   
    18     9    11 ar  
    19     9    31 1   
    20    10    45 1   
    21    11    12 ar  
    22    11    23 1   
    23    12    13 ar  
    24    12    35 1   
    25    13    36 1   
    26    14    19 ar  
    27    14    44 1   
    28    15    16 1   
    29    15    20 1   
    30    15    37 1   
    31    15    38 1   
    32    16    17 1   
    33    16    22 1   
    34    16    39 1   
    35    17    18 1   
    36    17    21 1   
    37    17    40 1   
    38    18    20 1   
    39    18    46 2   
    40    19    41 1   
    41    21    42 1   
    42    22    43 1   
    43    25    45 1   
    44    26    45 1   
    45    27    45 1   
    46    32    44 1   
    47    33    44 1   
    48    34    44 1   
@<TRIPOS>SUBSTRUCTURE
     1 QSJ         1 TEMP              0 ****  ****    0 ROOT
