@<TRIPOS>MOLECULE
QSJ
   46    48     1     0     0
SMALL
No Charge or Current Charge


@<TRIPOS>ATOM
      1 C4         -36.8950   -13.0030    19.0020 ca         1 QSJ      -0.044000
      2 C5         -37.1060   -13.9160    17.9460 ca         1 QSJ      -0.086000
      3 C6         -36.0970   -14.8100    17.5340 ca         1 QSJ      -0.061800
      4 C7         -34.8310   -14.7510    18.1600 ca         1 QSJ       0.111100
      5 C10        -36.3610   -15.7690    16.4190 ce         1 QSJ      -0.144200
      6 C11        -37.5520   -16.3160    16.0370 cf         1 QSJ      -0.156200
      7 C12        -37.8460   -17.2670    14.9450 ca         1 QSJ      -0.050800
      8 C13        -39.1750   -17.6950    14.7450 ca         1 QSJ      -0.092000
      9 C14        -39.4880   -18.6000    13.7150 ca         1 QSJ      -0.104000
     10 O8         -33.8230   -15.6170    17.7930 os         1 QSJ      -0.364100
     11 C15        -38.4750   -19.0850    12.8760 ca         1 QSJ       0.122000
     12 C16        -37.1490   -18.6670    13.0640 ca         1 QSJ      -0.104000
     13 C17        -36.8340   -17.7620    14.0940 ca         1 QSJ      -0.092000
     14 C2         -34.5720   -13.7830    19.1510 ca         1 QSJ      -0.078300
     15 C20        -38.0660   -11.4690    20.6870 c5         1 QSJ       0.061000
     16 C21        -38.8350   -10.1270    20.4610 c5         1 QSJ       0.142300
     17 C23        -39.6680   -10.4610    19.1910 c5         1 QSJ       0.101300
     18 C25        -38.7060   -11.3550    18.3620 c          1 QSJ       0.538000
     19 C3         -35.5980   -12.9040    19.5480 ca         1 QSJ      -0.100000
     20 N19        -37.8790   -11.9910    19.3090 n          1 QSJ      -0.239400
     21 O27        -40.0790    -9.2630    18.4970 oh         1 QSJ      -0.626000
     22 O28        -37.9290    -9.0410    20.2040 oh         1 QSJ      -0.630000
     23 Cl18       -38.8660   -20.2170    11.5870 cl         1 QSJ      -0.202000
     24 H1         -38.0720   -13.9440    17.4520 ha         1 QSJ       0.127000
     25 H2         -33.0200   -17.5460    17.8370 h1         1 QSJ       0.037033
     26 H3         -33.9120   -17.0670    19.2990 h1         1 QSJ       0.037033
     27 H4         -34.7960   -17.4790    17.8120 h1         1 QSJ       0.037033
     28 H5         -35.4650   -16.0510    15.8680 ha         1 QSJ       0.191000
     29 H6         -38.4320   -16.0330    16.6170 ha         1 QSJ       0.172000
     30 H7         -39.9710   -17.3270    15.3880 ha         1 QSJ       0.118000
     31 H8         -40.5160   -18.9240    13.5680 ha         1 QSJ       0.130000
     32 H9         -32.4200   -13.5030    19.0310 hc         1 QSJ       0.046700
     33 H10        -33.1350   -12.8510    20.5110 hc         1 QSJ       0.046700
     34 H11        -32.9350   -14.5980    20.3250 hc         1 QSJ       0.046700
     35 H12        -36.3640   -19.0440    12.4120 ha         1 QSJ       0.130000
     36 H13        -35.8000   -17.4550    14.2180 ha         1 QSJ       0.118000
     37 H14        -38.6680   -12.1730    21.2760 h1         1 QSJ       0.056200
     38 H15        -37.1210   -11.3070    21.2200 h1         1 QSJ       0.056200
     39 H16        -39.4830    -9.8910    21.3170 h1         1 QSJ       0.060700
     40 H17        -40.5370   -11.0800    19.4530 h1         1 QSJ       0.068700
     41 H18        -35.3740   -12.1390    20.2850 ha         1 QSJ       0.123000
     42 H19        -39.3500    -8.6190    18.6600 ho         1 QSJ       0.474000
     43 H20        -37.4650    -8.8420    21.0480 ho         1 QSJ       0.443000
     44 C1         -33.1910   -13.6760    19.7900 c3         1 QSJ      -0.040800
     45 C9         -33.8940   -16.9930    18.2040 c3         1 QSJ       0.148900
     46 O26        -38.6420   -11.4860    17.1430 o          1 QSJ      -0.528000
@<TRIPOS>BOND
     1     1     2 ar  
     2     1    19 ar  
     3     1    20 1   
     4     2     3 ar  
     5     2    24 1   
     6     3     4 ar  
     7     3     5 1   
     8     4    10 1   
     9     4    14 ar  
    10     5     6 2   
    11     5    28 1   
    12     6     7 1   
    13     6    29 1   
    14     7     8 ar  
    15     7    13 ar  
    16     8     9 ar  
    17     8    30 1   
    18     9    11 ar  
    19     9    31 1   
    20    10    45 1   
    21    11    12 ar  
    22    11    23 1   
    23    12    13 ar  
    24    12    35 1   
    25    13    36 1   
    26    14    19 ar  
    27    14    44 1   
    28    15    16 1   
    29    15    20 1   
    30    15    37 1   
    31    15    38 1   
    32    16    17 1   
    33    16    22 1   
    34    16    39 1   
    35    17    18 1   
    36    17    21 1   
    37    17    40 1   
    38    18    20 1   
    39    18    46 2   
    40    19    41 1   
    41    21    42 1   
    42    22    43 1   
    43    25    45 1   
    44    26    45 1   
    45    27    45 1   
    46    32    44 1   
    47    33    44 1   
    48    34    44 1   
@<TRIPOS>SUBSTRUCTURE
     1 QSJ         1 TEMP              0 ****  ****    0 ROOT
