@<TRIPOS>MOLECULE
QSL
   29    31     1     0     0
SMALL
No Charge or Current Charge


@<TRIPOS>ATOM
      1 C16        -46.7780   -29.3040     5.2820 ca         1 QSL      -0.247800
      2 C17        -51.2480   -31.2510     6.3680 cy         1 QSL      -0.292900
      3 C15        -47.6710   -28.9480     4.2110 cc         1 QSL      -0.209200
      4 C14        -46.9560   -29.0720     3.0330 cd         1 QSL      -0.172100
      5 C12        -45.5610   -29.6150     4.7240 ca         1 QSL       0.149500
      6 C10        -44.7280   -29.9830     6.8240 ca         1 QSL       0.178900
      7 C04        -49.7350   -31.8860     7.7000 cy         1 QSL      -0.292900
      8 C05        -49.7410   -30.7690     6.5620 cy         1 QSL      -0.073700
      9 C06        -49.4840   -29.3010     6.9620 c3         1 QSL       0.250800
     10 C08        -46.9320   -29.3620     6.6830 ca         1 QSL       0.424900
     11 N07        -48.0940   -29.0740     7.3880 nu         1 QSL      -0.924100
     12 N09        -45.8870   -29.6940     7.4590 nb         1 QSL      -0.300000
     13 N11        -44.5100   -29.9640     5.4880 nb         1 QSL      -0.229000
     14 N13        -45.6410   -29.4920     3.3460 na         1 QSL      -0.324400
     15 S02        -51.3860   -32.6120     7.5540 s6         1 QSL       1.078000
     16 H172       -51.9850   -30.4860     6.6240 h1         1 QSL       0.113950
     17 H171       -51.4580   -31.6240     5.3620 h1         1 QSL       0.113950
     18 H151       -48.7060   -28.6230     4.2730 ha         1 QSL       0.201000
     19 H141       -47.2790   -28.8900     2.0080 h4         1 QSL       0.219000
     20 H101       -43.8820   -30.2590     7.4520 h5         1 QSL       0.047100
     21 H042       -49.6180   -31.4770     8.7070 h1         1 QSL       0.113950
     22 H041       -48.9800   -32.6600     7.5430 h1         1 QSL       0.113950
     23 H051       -49.1000   -31.0150     5.7070 hc         1 QSL       0.093700
     24 H062       -50.1690   -29.0500     7.7850 h1         1 QSL       0.061700
     25 H061       -49.7510   -28.6520     6.1200 h1         1 QSL       0.061700
     26 H071       -47.9440   -29.0750     8.3970 hn         1 QSL       0.502000
     27 H131       -44.8860   -29.6670     2.6900 hn         1 QSL       0.364000
     28 O01        -52.2540   -32.2880     8.6940 o          1 QSL      -0.509500
     29 O03        -51.3730   -33.9320     6.9100 o          1 QSL      -0.509500
@<TRIPOS>BOND
     1     1     3 1   
     2     1     5 ar  
     3     1    10 ar  
     4     2     8 1   
     5     2    15 1   
     6     2    16 1   
     7     2    17 1   
     8     3     4 2   
     9     3    18 1   
    10     4    14 1   
    11     4    19 1   
    12     5    13 ar  
    13     5    14 1   
    14     6    12 ar  
    15     6    13 ar  
    16     6    20 1   
    17     7     8 1   
    18     7    15 1   
    19     7    21 1   
    20     7    22 1   
    21     8     9 1   
    22     8    23 1   
    23     9    11 1   
    24     9    24 1   
    25     9    25 1   
    26    10    11 1   
    27    10    12 ar  
    28    11    26 1   
    29    14    27 1   
    30    15    28 2   
    31    15    29 2   
@<TRIPOS>SUBSTRUCTURE
     1 QSL         1 TEMP              0 ****  ****    0 ROOT
