@<TRIPOS>MOLECULE
QSL
   29    31     1     0     0
SMALL
abcg2


@<TRIPOS>ATOM
      1 C16        -46.8620   -29.4080     5.3170 ca         1 QSL      -0.247800
      2 C17        -51.3090   -30.9990     6.2780 cy         1 QSL      -0.292900
      3 C15        -47.7800   -29.2830     4.2180 cc         1 QSL      -0.209200
      4 C14        -47.0320   -29.2930     3.0740 cd         1 QSL      -0.172100
      5 C12        -45.5670   -29.4900     4.7530 ca         1 QSL       0.149500
      6 C10        -44.5890   -29.6570     6.7400 ca         1 QSL       0.178900
      7 C04        -49.7570   -31.8990     7.7980 cy         1 QSL      -0.292900
      8 C05        -49.7990   -30.8720     6.6290 cy         1 QSL      -0.073700
      9 C06        -49.3820   -29.4590     7.0280 c3         1 QSL       0.250800
     10 C08        -46.8960   -29.4650     6.7300 ca         1 QSL       0.424900
     11 N07        -48.0130   -29.3770     7.4910 nu         1 QSL      -0.924100
     12 N09        -45.7390   -29.5930     7.4130 nb         1 QSL      -0.300000
     13 N11        -44.4130   -29.6140     5.4250 nb         1 QSL      -0.229000
     14 N13        -45.6960   -29.4180     3.4000 na         1 QSL      -0.324400
     15 S02        -51.4260   -32.4310     7.3710 s6         1 QSL       1.078000
     16 H172       -51.9210   -30.1830     6.6610 h1         1 QSL       0.113950
     17 H171       -51.5570   -31.2240     5.2440 h1         1 QSL       0.113950
     18 H151       -48.8520   -29.1970     4.2470 ha         1 QSL       0.201000
     19 H141       -47.3390   -29.2210     2.0440 h4         1 QSL       0.219000
     20 H101       -43.6930   -29.7590     7.3450 h5         1 QSL       0.047100
     21 H042       -49.7460   -31.4440     8.7870 h1         1 QSL       0.113950
     22 H041       -49.0230   -32.6960     7.7260 h1         1 QSL       0.113950
     23 H051       -49.1910   -31.2280     5.8000 hc         1 QSL       0.093700
     24 H062       -50.0180   -29.1150     7.8440 h1         1 QSL       0.061700
     25 H061       -49.5390   -28.7760     6.1940 h1         1 QSL       0.061700
     26 H071       -47.8530   -29.5090     8.4780 hn         1 QSL       0.502000
     27 H131       -44.9310   -29.4510     2.7450 hn         1 QSL       0.364000
     28 O01        -52.3900   -32.2810     8.4450 o          1 QSL      -0.509500
     29 O03        -51.4250   -33.6810     6.6310 o          1 QSL      -0.509500
@<TRIPOS>BOND
     1     1     3 1   
     2     1     5 ar  
     3     1    10 ar  
     4     2     8 1   
     5     2    15 1   
     6     2    16 1   
     7     2    17 1   
     8     3     4 2   
     9     3    18 1   
    10     4    14 1   
    11     4    19 1   
    12     5    13 ar  
    13     5    14 1   
    14     6    12 ar  
    15     6    13 ar  
    16     6    20 1   
    17     7     8 1   
    18     7    15 1   
    19     7    21 1   
    20     7    22 1   
    21     8     9 1   
    22     8    23 1   
    23     9    11 1   
    24     9    24 1   
    25     9    25 1   
    26    10    11 1   
    27    10    12 ar  
    28    11    26 1   
    29    14    27 1   
    30    15    28 2   
    31    15    29 2   
@<TRIPOS>SUBSTRUCTURE
     1 QSL         1 TEMP              0 ****  ****    0 ROOT
