@<TRIPOS>MOLECULE
QSM
   58    61     1     0     0
SMALL
abcg2


@<TRIPOS>ATOM
      1 N1         277.0430    35.5260   174.0250 n7         1 QSM      -0.843400
      2 C4         277.5930    29.9430   176.9270 ca         1 QSM      -0.091800
      3 C5         277.5240    31.1300   176.1840 ca         1 QSM      -0.054000
      4 C6         278.0610    28.1510   178.2030 cc         1 QSM      -0.002300
      5 C7         278.6310    29.2840   177.6700 cd         1 QSM      -0.113400
      6 C8         280.0680    29.7030   177.7910 c3         1 QSM       0.009500
      7 C10        280.2300    30.9440   178.6700 c3         1 QSM      -0.082600
      8 C13        279.4460    27.4420   180.1380 ca         1 QSM      -0.153000
      9 C15        279.7900    25.1060   180.6460 ca         1 QSM       0.119100
     10 C17        278.4100    25.7600   178.7760 ca         1 QSM      -0.101000
     11 C20        277.1710    34.3960   173.1180 c6         1 QSM       0.146300
     12 C21        275.9870    35.3130   175.0030 c6         1 QSM       0.146300
     13 C22        276.1090    34.0010   175.7740 c6         1 QSM      -0.108900
     14 C23        280.2030    22.8490   181.2230 c3         1 QSM       0.144900
     15 O1         280.3890    24.2280   181.4690 os         1 QSM      -0.319100
     16 C14        280.0240    26.4680   180.9310 ca         1 QSM       0.110100
     17 O          280.8090    26.7120   181.9960 os         1 QSM      -0.321100
     18 C18        281.0700    28.0570   182.3390 c3         1 QSM       0.144900
     19 C16        278.9780    24.7710   179.5750 ca         1 QSM      -0.174000
     20 C11        278.6440    27.1010   179.0390 ca         1 QSM      -0.041800
     21 N          276.7510    28.0610   177.7970 na         1 QSM      -0.218700
     22 C3         276.4330    29.1460   177.0360 ca         1 QSM      -0.044200
     23 C2         275.2280    29.5090   176.4420 ca         1 QSM      -0.130000
     24 C1         275.2010    30.6870   175.7210 ca         1 QSM      -0.086000
     25 C9         280.7320    29.9110   176.4280 c3         1 QSM      -0.082600
     26 C          276.3380    31.5060   175.5760 ca         1 QSM      -0.109300
     27 C12        276.2220    32.8070   174.8190 c6         1 QSM      -0.009400
     28 C19        277.3570    33.0530   173.8220 c6         1 QSM      -0.108900
     29 H22        277.9210    35.6420   174.5200 hn         1 QSM       0.400000
     30 H2         278.3950    31.7680   176.1030 ha         1 QSM       0.113000
     31 H4         280.6080    28.8850   178.2750 hc         1 QSM       0.049700
     32 H8         279.8340    30.7760   179.6730 hc         1 QSM       0.032200
     33 H10        281.2830    31.2150   178.7670 hc         1 QSM       0.032200
     34 H9         279.7070    31.8030   178.2480 hc         1 QSM       0.032200
     35 H12        279.5820    28.4870   180.3790 ha         1 QSM       0.129000
     36 H14        277.8030    25.4630   177.9300 ha         1 QSM       0.116000
     37 H20        276.2700    34.3550   172.4960 h1         1 QSM       0.050700
     38 H21        278.0070    34.5840   172.4400 h1         1 QSM       0.050700
     39 H23        275.9760    36.1580   175.6950 h1         1 QSM       0.050700
     40 H24        275.0260    35.3310   174.4760 h1         1 QSM       0.050700
     41 H25        276.9960    34.0340   176.4180 hc         1 QSM       0.045700
     42 H26        275.2460    33.8730   176.4340 hc         1 QSM       0.045700
     43 H27        280.7540    22.3200   181.9960 h1         1 QSM       0.040700
     44 H28        279.1500    22.5610   181.2830 h1         1 QSM       0.040700
     45 H29        280.5930    22.5520   180.2450 h1         1 QSM       0.040700
     46 H15        281.7310    28.0340   183.2010 h1         1 QSM       0.041033
     47 H17        281.5690    28.5980   181.5290 h1         1 QSM       0.041033
     48 H16        280.1580    28.5940   182.6120 h1         1 QSM       0.041033
     49 H13        278.7820    23.7350   179.3330 ha         1 QSM       0.120000
     50 H3         276.0910    27.3850   178.1460 hn         1 QSM       0.350000
     51 H1         274.3420    28.8950   176.5440 ha         1 QSM       0.113000
     52 H          274.2740    30.9960   175.2520 ha         1 QSM       0.108000
     53 H7         281.7970    30.1140   176.5550 hc         1 QSM       0.032200
     54 H6         280.6320    29.0260   175.7980 hc         1 QSM       0.032200
     55 H5         280.3050    30.7550   175.8850 hc         1 QSM       0.032200
     56 H11        275.2930    32.7660   174.2350 hc         1 QSM       0.049700
     57 H18        277.3890    32.2460   173.0840 hc         1 QSM       0.045700
     58 H19        278.3270    33.0530   174.3310 hc         1 QSM       0.045700
@<TRIPOS>BOND
     1     1    11 1   
     2     1    12 1   
     3     1    29 1   
     4     2     3 ar  
     5     2     5 1   
     6     2    22 ar  
     7     3    26 ar  
     8     3    30 1   
     9     4     5 2   
    10     4    20 1   
    11     4    21 1   
    12     5     6 1   
    13     6     7 1   
    14     6    25 1   
    15     6    31 1   
    16     7    32 1   
    17     7    33 1   
    18     7    34 1   
    19     8    16 ar  
    20     8    20 ar  
    21     8    35 1   
    22     9    15 1   
    23     9    16 ar  
    24     9    19 ar  
    25    10    19 ar  
    26    10    20 ar  
    27    10    36 1   
    28    11    28 1   
    29    11    37 1   
    30    11    38 1   
    31    12    13 1   
    32    12    39 1   
    33    12    40 1   
    34    13    27 1   
    35    13    41 1   
    36    13    42 1   
    37    14    15 1   
    38    14    43 1   
    39    14    44 1   
    40    14    45 1   
    41    16    17 1   
    42    17    18 1   
    43    18    46 1   
    44    18    47 1   
    45    18    48 1   
    46    19    49 1   
    47    21    22 1   
    48    21    50 1   
    49    22    23 ar  
    50    23    24 ar  
    51    23    51 1   
    52    24    26 ar  
    53    24    52 1   
    54    25    53 1   
    55    25    54 1   
    56    25    55 1   
    57    26    27 1   
    58    27    28 1   
    59    27    56 1   
    60    28    57 1   
    61    28    58 1   
@<TRIPOS>SUBSTRUCTURE
     1 QSM         1 TEMP              0 ****  ****    0 ROOT
