@<TRIPOS>MOLECULE
QSM
   58    61     1     0     0
SMALL
No Charge or Current Charge


@<TRIPOS>ATOM
      1 N1         277.3390    35.4220   173.8710 n7         1 QSM      -0.843400
      2 C4         277.4280    29.9590   177.0030 ca         1 QSM      -0.091800
      3 C5         277.4220    31.1780   176.3080 ca         1 QSM      -0.054000
      4 C6         277.9050    28.1040   178.2790 cc         1 QSM      -0.002300
      5 C7         278.4680    29.2720   177.7570 cd         1 QSM      -0.113400
      6 C8         279.9200    29.7120   177.8730 c3         1 QSM       0.009500
      7 C10        280.0670    31.0090   178.6980 c3         1 QSM      -0.082600
      8 C13        279.3300    27.4510   180.2220 ca         1 QSM      -0.153000
      9 C15        279.9270    25.1090   180.6000 ca         1 QSM       0.119100
     10 C17        278.5290    25.7380   178.6970 ca         1 QSM      -0.101000
     11 C20        277.1050    34.2870   172.9450 c6         1 QSM       0.146300
     12 C21        276.3700    35.4520   174.9930 c6         1 QSM       0.146300
     13 C22        276.4150    34.1320   175.8010 c6         1 QSM      -0.108900
     14 C23        280.5700    22.7610   181.0470 c3         1 QSM       0.144900
     15 O1         280.5880    24.1630   181.3660 os         1 QSM      -0.319100
     16 C14        279.9980    26.4690   180.9890 ca         1 QSM       0.110100
     17 O          280.7240    26.7980   182.1220 os         1 QSM      -0.321100
     18 C18        280.8700    28.1550   182.5790 c3         1 QSM       0.144900
     19 C16        279.1850    24.7510   179.4520 ca         1 QSM      -0.174000
     20 C11        278.6100    27.0930   179.0660 ca         1 QSM      -0.041800
     21 N          276.5850    28.0390   177.8090 na         1 QSM      -0.218700
     22 C3         276.3110    29.1680   177.0630 ca         1 QSM      -0.044200
     23 C2         275.1150    29.5290   176.4340 ca         1 QSM      -0.130000
     24 C1         275.0810    30.7480   175.7250 ca         1 QSM      -0.086000
     25 C9         280.6120    29.8090   176.4940 c3         1 QSM      -0.082600
     26 C          276.2300    31.5790   175.6580 ca         1 QSM      -0.109300
     27 C12        276.1700    32.9040   174.8820 c6         1 QSM      -0.009400
     28 C19        277.1710    32.9350   173.6960 c6         1 QSM      -0.108900
     29 H22        278.2820    35.3220   174.2660 hn         1 QSM       0.400000
     30 H2         278.3070    31.8050   176.2720 ha         1 QSM       0.113000
     31 H4         280.4820    28.9430   178.4120 hc         1 QSM       0.049700
     32 H8         279.6070    30.8890   179.6860 hc         1 QSM       0.032200
     33 H10        281.1260    31.2540   178.8440 hc         1 QSM       0.032200
     34 H9         279.5870    31.8580   178.1990 hc         1 QSM       0.032200
     35 H12        279.3530    28.4960   180.5130 ha         1 QSM       0.129000
     36 H14        277.9640    25.4500   177.8130 ha         1 QSM       0.116000
     37 H20        276.1170    34.3960   172.4710 h1         1 QSM       0.050700
     38 H21        277.8590    34.3010   172.1430 h1         1 QSM       0.050700
     39 H23        276.5970    36.2990   175.6580 h1         1 QSM       0.050700
     40 H24        275.3530    35.6050   174.5980 h1         1 QSM       0.050700
     41 H25        277.3880    34.0460   176.3030 hc         1 QSM       0.045700
     42 H26        275.6570    34.1610   176.5950 hc         1 QSM       0.045700
     43 H27        281.1570    22.1970   181.7820 h1         1 QSM       0.040700
     44 H28        279.5450    22.3710   181.0600 h1         1 QSM       0.040700
     45 H29        281.0050    22.5810   180.0550 h1         1 QSM       0.040700
     46 H15        281.4910    28.1860   183.4830 h1         1 QSM       0.041033
     47 H17        281.3540    28.7740   181.8130 h1         1 QSM       0.041033
     48 H16        279.8940    28.5920   182.8230 h1         1 QSM       0.041033
     49 H13        279.1050    23.7170   179.1290 ha         1 QSM       0.120000
     50 H3         275.9320    27.2870   177.9980 hn         1 QSM       0.350000
     51 H1         274.2360    28.8910   176.4900 ha         1 QSM       0.113000
     52 H          274.1600    31.0470   175.2300 ha         1 QSM       0.108000
     53 H7         281.6830    30.0110   176.6170 hc         1 QSM       0.032200
     54 H6         280.5070    28.8640   175.9470 hc         1 QSM       0.032200
     55 H5         280.1870    30.6080   175.8800 hc         1 QSM       0.032200
     56 H11        275.1600    33.0100   174.4600 hc         1 QSM       0.049700
     57 H18        276.9480    32.1160   172.9990 hc         1 QSM       0.045700
     58 H19        278.1960    32.7680   174.0540 hc         1 QSM       0.045700
@<TRIPOS>BOND
     1     1    11 1   
     2     1    12 1   
     3     1    29 1   
     4     2     3 ar  
     5     2     5 1   
     6     2    22 ar  
     7     3    26 ar  
     8     3    30 1   
     9     4     5 2   
    10     4    20 1   
    11     4    21 1   
    12     5     6 1   
    13     6     7 1   
    14     6    25 1   
    15     6    31 1   
    16     7    32 1   
    17     7    33 1   
    18     7    34 1   
    19     8    16 ar  
    20     8    20 ar  
    21     8    35 1   
    22     9    15 1   
    23     9    16 ar  
    24     9    19 ar  
    25    10    19 ar  
    26    10    20 ar  
    27    10    36 1   
    28    11    28 1   
    29    11    37 1   
    30    11    38 1   
    31    12    13 1   
    32    12    39 1   
    33    12    40 1   
    34    13    27 1   
    35    13    41 1   
    36    13    42 1   
    37    14    15 1   
    38    14    43 1   
    39    14    44 1   
    40    14    45 1   
    41    16    17 1   
    42    17    18 1   
    43    18    46 1   
    44    18    47 1   
    45    18    48 1   
    46    19    49 1   
    47    21    22 1   
    48    21    50 1   
    49    22    23 ar  
    50    23    24 ar  
    51    23    51 1   
    52    24    26 ar  
    53    24    52 1   
    54    25    53 1   
    55    25    54 1   
    56    25    55 1   
    57    26    27 1   
    58    27    28 1   
    59    27    56 1   
    60    28    57 1   
    61    28    58 1   
@<TRIPOS>SUBSTRUCTURE
     1 QSM         1 TEMP              0 ****  ****    0 ROOT
