@<TRIPOS>MOLECULE
QSN
   35    37     1     0     0
SMALL
abcg2


@<TRIPOS>ATOM
      1 N1          31.1560    -0.9860   -13.4520 no         1 QSN       0.667200
      2 O2          30.0930    -1.4530   -13.0800 o          1 QSN      -0.359500
      3 O3          32.2550    -1.4020   -13.1290 o          1 QSN      -0.359500
      4 C4          31.1060     0.1490   -14.3920 ca         1 QSN      -0.088200
      5 C5          31.9590     1.2510   -14.2350 ca         1 QSN       0.009800
      6 C6          31.9050     2.2470   -15.1920 ca         1 QSN      -0.016000
      7 C8          31.0350     2.1520   -16.2730 ca         1 QSN      -0.185600
      8 C9          30.1780     1.0540   -16.3950 ca         1 QSN       0.137600
      9 C10         30.2100     0.0440   -15.4330 ca         1 QSN      -0.119000
     10 N12         29.3160     0.9800   -17.4640 ns         1 QSN      -0.505600
     11 C14         29.1710     1.9340   -18.4320 c          1 QSN       0.648000
     12 N15         29.9650     3.0870   -18.2280 n          1 QSN      -0.232800
     13 C16         30.9740     3.2330   -17.2600 c          1 QSN       0.584600
     14 O17         31.7000     4.2060   -17.2700 o          1 QSN      -0.514000
     15 N18         29.7810     4.1060   -19.1460 nu         1 QSN      -0.595300
     16 S20         28.7170     5.3410   -18.7210 s6         1 QSN       1.202100
     17 O21         28.5020     6.0560   -19.9510 o          1 QSN      -0.514500
     18 O22         27.6200     4.6910   -18.0500 o          1 QSN      -0.514500
     19 C23         29.5300     6.4260   -17.5810 c3         1 QSN      -0.380100
     20 O27         28.4230     1.8120   -19.3740 o          1 QSN      -0.465000
     21 N28         32.8230     1.3920   -13.1260 na         1 QSN      -0.106300
     22 C29         32.4620     1.4510   -11.8070 cc         1 QSN       0.414400
     23 N31         33.5090     1.6130   -11.0330 nd         1 QSN      -0.651000
     24 C32         34.6000     1.6630   -11.8790 cd         1 QSN       0.247900
     25 C34         34.1980     1.5330   -13.1770 cc         1 QSN      -0.204000
     26 H6          32.5310     3.1230   -15.0910 ha         1 QSN       0.165000
     27 H10         29.5620    -0.8180   -15.5130 ha         1 QSN       0.164000
     28 HN12        28.7430     0.1560   -17.5840 hn         1 QSN       0.477000
     29 HN18        30.6460     4.4230   -19.5750 hn         1 QSN       0.496000
     30 H23         28.8300     7.2420   -17.3980 h1         1 QSN       0.108033
     31 H23A        29.7450     5.8860   -16.6640 h1         1 QSN       0.108033
     32 H23B        30.4410     6.7930   -18.0480 h1         1 QSN       0.108033
     33 H29         31.4320     1.3800   -11.4960 h5         1 QSN       0.062100
     34 H32         35.6030     1.7880   -11.5060 h4         1 QSN       0.047100
     35 H34         34.7310     1.5110   -14.1110 h4         1 QSN       0.162000
@<TRIPOS>BOND
     1     1     2 1   
     2     1     3 1   
     3     1     4 1   
     4     4     5 ar  
     5     4     9 ar  
     6     5     6 ar  
     7     5    21 1   
     8     6     7 ar  
     9     6    26 1   
    10     7     8 ar  
    11     7    13 1   
    12     8     9 ar  
    13     8    10 1   
    14     9    27 1   
    15    10    11 1   
    16    10    28 1   
    17    11    12 1   
    18    11    20 2   
    19    12    13 1   
    20    12    15 1   
    21    13    14 2   
    22    15    16 1   
    23    15    29 1   
    24    16    17 2   
    25    16    18 2   
    26    16    19 1   
    27    19    30 1   
    28    19    31 1   
    29    19    32 1   
    30    21    22 1   
    31    21    25 1   
    32    22    23 2   
    33    22    33 1   
    34    23    24 1   
    35    24    25 2   
    36    24    34 1   
    37    25    35 1   
@<TRIPOS>SUBSTRUCTURE
     1 QSN         1 TEMP              0 ****  ****    0 ROOT
