@<TRIPOS>MOLECULE
QSN
   35    37     1     0     0
SMALL
No Charge or Current Charge


@<TRIPOS>ATOM
      1 N1          31.0990    -0.8930   -13.2000 no         1 QSN       0.667200
      2 O2          29.9990    -1.3320   -12.8390 o          1 QSN      -0.359500
      3 O3          32.1800    -1.3950   -12.8660 o          1 QSN      -0.359500
      4 C4          31.1080     0.2090   -14.2150 ca         1 QSN      -0.088200
      5 C5          32.0750     1.2530   -14.1980 ca         1 QSN       0.009800
      6 C6          32.0500     2.2380   -15.2080 ca         1 QSN      -0.016000
      7 C8          31.0720     2.2080   -16.2220 ca         1 QSN      -0.185600
      8 C9          30.1170     1.1910   -16.2250 ca         1 QSN       0.137600
      9 C10         30.1260     0.1980   -15.2350 ca         1 QSN      -0.119000
     10 N12         29.1610     1.1930   -17.2450 ns         1 QSN      -0.505600
     11 C14         29.0370     2.0950   -18.2590 c          1 QSN       0.648000
     12 N15         29.9920     3.1390   -18.2630 n          1 QSN      -0.232800
     13 C16         31.0300     3.2510   -17.3020 c          1 QSN       0.584600
     14 O17         31.8580     4.1520   -17.3530 o          1 QSN      -0.514000
     15 N18         29.9080     4.1500   -19.3210 nu         1 QSN      -0.595300
     16 S20         29.1960     5.6500   -19.0680 s6         1 QSN       1.202100
     17 O21         30.2810     6.6290   -19.1590 o          1 QSN      -0.514500
     18 O22         28.0590     5.7220   -19.9910 o          1 QSN      -0.514500
     19 C23         28.5690     5.6350   -17.3940 c3         1 QSN      -0.380100
     20 O27         28.1490     1.9880   -19.0880 o          1 QSN      -0.465000
     21 N28         33.0430     1.3630   -13.1960 na         1 QSN      -0.106300
     22 C29         32.7710     1.5590   -11.8630 cc         1 QSN       0.414400
     23 N31         33.9130     1.7540   -11.2130 nd         1 QSN      -0.651000
     24 C32         34.9140     1.7050   -12.1760 cd         1 QSN       0.247900
     25 C34         34.3900     1.4860   -13.4270 cc         1 QSN      -0.204000
     26 H6          32.7890     3.0370   -15.1920 ha         1 QSN       0.165000
     27 H10         29.3790    -0.5930   -15.2640 ha         1 QSN       0.164000
     28 HN12        28.4700     0.4490   -17.2510 hn         1 QSN       0.477000
     29 HN18        30.7830     4.3160   -19.8110 hn         1 QSN       0.496000
     30 H23         28.0670     6.5940   -17.2280 h1         1 QSN       0.108033
     31 H23A        27.8650     4.8010   -17.3110 h1         1 QSN       0.108033
     32 H23B        29.4200     5.5160   -16.7180 h1         1 QSN       0.108033
     33 H29         31.7690     1.5530   -11.4500 h5         1 QSN       0.062100
     34 H32         35.9570     1.8440   -11.9140 h4         1 QSN       0.047100
     35 H34         34.8550     1.4030   -14.4000 h4         1 QSN       0.162000
@<TRIPOS>BOND
     1     1     2 1   
     2     1     3 1   
     3     1     4 1   
     4     4     5 ar  
     5     4     9 ar  
     6     5     6 ar  
     7     5    21 1   
     8     6     7 ar  
     9     6    26 1   
    10     7     8 ar  
    11     7    13 1   
    12     8     9 ar  
    13     8    10 1   
    14     9    27 1   
    15    10    11 1   
    16    10    28 1   
    17    11    12 1   
    18    11    20 2   
    19    12    13 1   
    20    12    15 1   
    21    13    14 2   
    22    15    16 1   
    23    15    29 1   
    24    16    17 2   
    25    16    18 2   
    26    16    19 1   
    27    19    30 1   
    28    19    31 1   
    29    19    32 1   
    30    21    22 1   
    31    21    25 1   
    32    22    23 2   
    33    22    33 1   
    34    23    24 1   
    35    24    25 2   
    36    24    34 1   
    37    25    35 1   
@<TRIPOS>SUBSTRUCTURE
     1 QSN         1 TEMP              0 ****  ****    0 ROOT
