@<TRIPOS>MOLECULE
QSO
   33    35     1     0     0
SMALL
bcc


@<TRIPOS>ATOM
      1 H2          -0.2760     1.7890    -0.0010 cc         1 QSO       0.051000
      2 H4          -0.6320    -0.5880     0.1210 c          1 QSO       0.339000
      3 H4          -6.0430     0.7360     0.1030 oh         1 QSO      -0.235000
      4 H4A         -2.0430    -0.2740     0.1120 ca         1 QSO      -0.362000
      5 H8A         -2.4820     1.0520     0.0540 ca         1 QSO       0.182000
      6 H7          -4.7570     0.3780     0.1080 ca         1 QSO       0.200000
      7 H6          -4.3700    -0.9630     0.1700 ca         1 QSO      -0.328000
      8 H5          -3.0260    -1.2930     0.1730 ca         1 QSO       0.245000
      9 H8          -3.8170     1.4030     0.0500 ca         1 QSO      -0.253000
     10 H3           0.2650     0.5560     0.0620 cd         1 QSO      -0.200000
     11 H1          -1.5820     2.0560    -0.0020 os         1 QSO      -0.111000
     12 H1           1.7280     0.3930     0.1090 ca         1 QSO      -0.064000
     13 H2          -0.2240    -1.7550     0.1840 o          1 QSO      -0.350000
     14 H9           2.4940     1.1490     1.0000 ca         1 QSO      -0.070000
     15 H13          3.8700     1.0410     1.0350 ca         1 QSO      -0.193000
     16 H10          4.5270     0.1550     0.1790 ca         1 QSO       0.104000
     17 H12          3.7760    -0.6130    -0.7100 ca         1 QSO      -0.193000
     18 H11          2.3940    -0.4890    -0.7370 ca         1 QSO      -0.070000
     19 H5           5.8660     0.1070     0.2830 os         1 QSO      -0.201000
     20 H3          -2.6710    -2.5700     0.2320 oh         1 QSO      -0.254000
     21 HM           6.5810    -0.7780    -0.5580 c3         1 QSO      -0.064000
     22 H2           0.3140     2.6940    -0.0610 ha         1 QSO       0.185000
     23 HO4         -6.6190    -0.0360     0.1480 ha         1 QSO       0.238000
     24 H6          -5.1130    -1.7510     0.2150 ha         1 QSO       0.155000
     25 H8          -4.1220     2.4410     0.0030 ha         1 QSO       0.170000
     26 H1           2.0030     1.8290     1.6860 ha         1 QSO       0.134500
     27 H3           4.4470     1.6330     1.7350 ha         1 QSO       0.141500
     28 H5           4.2470    -1.3090    -1.3920 ha         1 QSO       0.141500
     29 H4           1.8380    -1.0810    -1.4500 ha         1 QSO       0.134500
     30 HO3         -1.6830    -2.6040     0.2280 ha         1 QSO       0.286000
     31 HM1          6.2960    -1.8190    -0.3910 ha         1 QSO       0.081000
     32 HM2          6.4410    -0.5400    -1.6150 ha         1 QSO       0.081000
     33 HM3          7.6320    -0.6580    -0.3100 ha         1 QSO       0.081000
@<TRIPOS>BOND
     1     1    10 2   
     2     1    11 1   
     3     1    22 1   
     4     2     4 1   
     5     2    10 1   
     6     2    13 2   
     7     3     6 1   
     8     3    23 1   
     9     4     5 ar  
    10     4     8 ar  
    11     5     9 ar  
    12     5    11 1   
    13     6     7 ar  
    14     6     9 ar  
    15     7     8 ar  
    16     7    24 1   
    17     8    20 1   
    18     9    25 1   
    19    10    12 1   
    20    12    14 ar  
    21    12    18 ar  
    22    14    15 ar  
    23    14    26 1   
    24    15    16 ar  
    25    15    27 1   
    26    16    17 ar  
    27    16    19 1   
    28    17    18 ar  
    29    17    28 1   
    30    18    29 1   
    31    19    21 1   
    32    20    30 1   
    33    21    31 1   
    34    21    32 1   
    35    21    33 1   
@<TRIPOS>SUBSTRUCTURE
     1 QSO         1 TEMP              0 ****  ****    0 ROOT
