@<TRIPOS>MOLECULE
QSO
   33    35     1     0     0
SMALL
abcg2


@<TRIPOS>ATOM
      1 C2          -0.2760     1.7890    -0.0010 cc         1 QSO       0.045100
      2 C4          -0.6320    -0.5880     0.1210 c          1 QSO       0.617900
      3 O4          -6.0430     0.7360     0.1030 oh         1 QSO      -0.520100
      4 C4A         -2.0430    -0.2740     0.1120 ca         1 QSO      -0.382600
      5 C8A         -2.4820     1.0520     0.0540 ca         1 QSO       0.227100
      6 C7          -4.7570     0.3780     0.1080 ca         1 QSO       0.245100
      7 C6          -4.3700    -0.9630     0.1700 ca         1 QSO      -0.310000
      8 C5          -3.0260    -1.2930     0.1730 ca         1 QSO       0.290100
      9 C8          -3.8170     1.4030     0.0500 ca         1 QSO      -0.235000
     10 C3           0.2650     0.5560     0.0620 cd         1 QSO      -0.207400
     11 O1          -1.5820     2.0560    -0.0020 os         1 QSO      -0.200200
     12 C1           1.7280     0.3930     0.1090 ca         1 QSO      -0.075800
     13 O2          -0.2240    -1.7550     0.1840 o          1 QSO      -0.589100
     14 C9           2.4940     1.1490     1.0000 ca         1 QSO      -0.052000
     15 C13          3.8700     1.0410     1.0350 ca         1 QSO      -0.175000
     16 C10          4.5270     0.1550     0.1790 ca         1 QSO       0.149100
     17 C12          3.7760    -0.6130    -0.7100 ca         1 QSO      -0.175000
     18 C11          2.3940    -0.4890    -0.7370 ca         1 QSO      -0.052000
     19 O5           5.8660     0.1070     0.2830 os         1 QSO      -0.341100
     20 O3          -2.6710    -2.5700     0.2320 oh         1 QSO      -0.539100
     21 CM           6.5810    -0.7780    -0.5580 c3         1 QSO       0.148900
     22 H2           0.3140     2.6940    -0.0610 h4         1 QSO       0.235000
     23 HO4         -6.6190    -0.0360     0.1480 ho         1 QSO       0.478000
     24 H6          -5.1130    -1.7510     0.2150 ha         1 QSO       0.137000
     25 H8          -4.1220     2.4410     0.0030 ha         1 QSO       0.152000
     26 H1           2.0030     1.8290     1.6860 ha         1 QSO       0.116500
     27 H3           4.4470     1.6330     1.7350 ha         1 QSO       0.123500
     28 H5           4.2470    -1.3090    -1.3920 ha         1 QSO       0.123500
     29 H4           1.8380    -1.0810    -1.4500 ha         1 QSO       0.116500
     30 HO3         -1.6830    -2.6040     0.2280 ho         1 QSO       0.526000
     31 HM1          6.2960    -1.8190    -0.3910 h1         1 QSO       0.041700
     32 HM2          6.4410    -0.5400    -1.6150 h1         1 QSO       0.041700
     33 HM3          7.6320    -0.6580    -0.3100 h1         1 QSO       0.041700
@<TRIPOS>BOND
     1     1    10 2   
     2     1    11 1   
     3     1    22 1   
     4     2     4 1   
     5     2    10 1   
     6     2    13 2   
     7     3     6 1   
     8     3    23 1   
     9     4     5 ar  
    10     4     8 ar  
    11     5     9 ar  
    12     5    11 1   
    13     6     7 ar  
    14     6     9 ar  
    15     7     8 ar  
    16     7    24 1   
    17     8    20 1   
    18     9    25 1   
    19    10    12 1   
    20    12    14 ar  
    21    12    18 ar  
    22    14    15 ar  
    23    14    26 1   
    24    15    16 ar  
    25    15    27 1   
    26    16    17 ar  
    27    16    19 1   
    28    17    18 ar  
    29    17    28 1   
    30    18    29 1   
    31    19    21 1   
    32    20    30 1   
    33    21    31 1   
    34    21    32 1   
    35    21    33 1   
@<TRIPOS>SUBSTRUCTURE
     1 QSO         1 TEMP              0 ****  ****    0 ROOT
