@<TRIPOS>MOLECULE
QSO
   33    35     1     0     0
SMALL
No Charge or Current Charge


@<TRIPOS>ATOM
      1 C2          -0.2980     1.8930     0.2110 cc         1 QSO       0.045100
      2 C4          -0.6530    -0.5420    -0.1290 c          1 QSO       0.617900
      3 O4          -6.1420     0.6500     0.3410 oh         1 QSO      -0.520100
      4 C4A         -2.0980    -0.2700    -0.0040 ca         1 QSO      -0.382600
      5 C8A         -2.5090     1.0630     0.0740 ca         1 QSO       0.227100
      6 C7          -4.8240     0.3420     0.2320 ca         1 QSO       0.245100
      7 C6          -4.4180    -0.9910     0.1670 ca         1 QSO      -0.310000
      8 C5          -3.0610    -1.2950     0.0460 ca         1 QSO       0.290100
      9 C8          -3.8740     1.3620     0.1800 ca         1 QSO      -0.235000
     10 C3           0.2480     0.6340    -0.0210 cd         1 QSO      -0.207400
     11 O1          -1.6450     2.1360    -0.0130 os         1 QSO      -0.200200
     12 C1           1.7310     0.4660     0.0430 ca         1 QSO      -0.075800
     13 O2          -0.2630    -1.6980    -0.2530 o          1 QSO      -0.589100
     14 C9           2.5220     1.3560     0.8090 ca         1 QSO      -0.052000
     15 C13          3.9190     1.2140     0.8690 ca         1 QSO      -0.175000
     16 C10          4.5640     0.1920     0.1610 ca         1 QSO       0.149100
     17 C12          3.7950    -0.6940    -0.6180 ca         1 QSO      -0.175000
     18 C11          2.3970    -0.5550    -0.6760 ca         1 QSO      -0.052000
     19 O5           5.9380     0.1040     0.2570 os         1 QSO      -0.341100
     20 O3          -2.6940    -2.5970    -0.0240 oh         1 QSO      -0.539100
     21 CM           6.6910    -0.9100    -0.4320 c3         1 QSO       0.148900
     22 H2           0.2520     2.8130     0.3730 h4         1 QSO       0.235000
     23 HO4         -6.6470    -0.1890     0.3610 ho         1 QSO       0.478000
     24 H6          -5.1460    -1.7970     0.2040 ha         1 QSO       0.137000
     25 H8          -4.1950     2.3990     0.2220 ha         1 QSO       0.152000
     26 H1           2.0660     2.1480     1.3960 ha         1 QSO       0.116500
     27 H3           4.5060     1.9000     1.4730 ha         1 QSO       0.123500
     28 H5           4.2610    -1.4890    -1.1920 ha         1 QSO       0.123500
     29 H4           1.8470    -1.2320    -1.3220 ha         1 QSO       0.116500
     30 HO3         -1.7080    -2.5780    -0.1260 ho         1 QSO       0.526000
     31 HM1          6.3810    -1.9130    -0.1100 h1         1 QSO       0.041700
     32 HM2          6.5530    -0.8300    -1.5170 h1         1 QSO       0.041700
     33 HM3          7.7610    -0.8010    -0.2170 h1         1 QSO       0.041700
@<TRIPOS>BOND
     1     1    10 2   
     2     1    11 1   
     3     1    22 1   
     4     2     4 1   
     5     2    10 1   
     6     2    13 2   
     7     3     6 1   
     8     3    23 1   
     9     4     5 ar  
    10     4     8 ar  
    11     5     9 ar  
    12     5    11 1   
    13     6     7 ar  
    14     6     9 ar  
    15     7     8 ar  
    16     7    24 1   
    17     8    20 1   
    18     9    25 1   
    19    10    12 1   
    20    12    14 ar  
    21    12    18 ar  
    22    14    15 ar  
    23    14    26 1   
    24    15    16 ar  
    25    15    27 1   
    26    16    17 ar  
    27    16    19 1   
    28    17    18 ar  
    29    17    28 1   
    30    18    29 1   
    31    19    21 1   
    32    20    30 1   
    33    21    31 1   
    34    21    32 1   
    35    21    33 1   
@<TRIPOS>SUBSTRUCTURE
     1 QSO         1 TEMP              0 ****  ****    0 ROOT
