@<TRIPOS>MOLECULE
QSS
   31    32     1     0     0
SMALL
bcc


@<TRIPOS>ATOM
      1 C4         -22.0490   -17.7270     6.5720 ca         1 QSS      -0.128000
      2 C5         -22.5220   -16.8440     7.5360 ca         1 QSS       0.050600
      3 C6         -23.5160   -14.7010     7.0520 c6         1 QSS       0.182800
      4 N1         -22.3350   -15.4460     7.4700 nh         1 QSS      -0.647000
      5 C7         -23.3180   -13.2230     7.3230 c6         1 QSS       0.162800
      6 N2         -22.1320   -12.7340     6.6500 n3         1 QSS      -0.718600
      7 C9         -20.9660   -13.4900     7.0610 c6         1 QSS       0.162800
      8 C10        -21.1560   -14.9690     6.7760 c6         1 QSS       0.182800
      9 C          -23.2060   -17.3540     8.6610 ca         1 QSS       0.142600
     10 C3         -22.2410   -19.0990     6.6890 ca         1 QSS      -0.160000
     11 C2         -22.9320   -19.5960     7.7840 ca         1 QSS      -0.101000
     12 C1         -23.4080   -18.7310     8.7600 ca         1 QSS      -0.190000
     13 H1         -21.5190   -17.3400     5.7100 ha         1 QSS       0.129000
     14 H2         -24.3880   -15.0530     7.6050 h1         1 QSS       0.046200
     15 H3         -23.7200   -14.8560     5.9820 h1         1 QSS       0.046200
     16 H4         -24.1890   -12.6730     6.9570 h1         1 QSS       0.036200
     17 H5         -23.2660   -13.0620     8.4150 h1         1 QSS       0.036200
     18 H6         -21.0840   -10.9670     6.2770 h1         1 QSS       0.030033
     19 H7         -22.8230   -10.7700     6.4940 h1         1 QSS       0.030033
     20 H8         -21.7840   -11.0400     7.9020 h1         1 QSS       0.030033
     21 H10        -20.0940   -13.1300     6.5080 h1         1 QSS       0.036200
     22 H11        -20.7490   -13.3550     8.1350 h1         1 QSS       0.036200
     23 H12        -21.2250   -15.1130     5.6870 h1         1 QSS       0.046200
     24 H13        -20.2820   -15.5190     7.1280 h1         1 QSS       0.046200
     25 H14        -23.8360   -16.9000    10.5290 hn         1 QSS       0.393300
     26 H15        -23.1590   -15.6260     9.6840 hn         1 QSS       0.393300
     27 H16        -21.8600   -19.7660     5.9270 ha         1 QSS       0.130000
     28 H17        -23.0950   -20.6610     7.8920 ha         1 QSS       0.128000
     29 H18        -23.9260   -19.1280     9.6250 ha         1 QSS       0.129000
     30 C8         -21.9470   -11.3150     6.8480 c3         1 QSS       0.154100
     31 N          -23.6850   -16.4850     9.6230 nv         1 QSS      -0.814200
@<TRIPOS>BOND
     1     1     2 ar  
     2     1    10 ar  
     3     1    13 1   
     4     2     4 1   
     5     2     9 ar  
     6     3     4 1   
     7     3     5 1   
     8     3    14 1   
     9     3    15 1   
    10     4     8 1   
    11     5     6 1   
    12     5    16 1   
    13     5    17 1   
    14     6     7 1   
    15     6    30 1   
    16     7     8 1   
    17     7    21 1   
    18     7    22 1   
    19     8    23 1   
    20     8    24 1   
    21     9    12 ar  
    22     9    31 1   
    23    10    11 ar  
    24    10    27 1   
    25    11    12 ar  
    26    11    28 1   
    27    12    29 1   
    28    18    30 1   
    29    19    30 1   
    30    20    30 1   
    31    25    31 1   
    32    26    31 1   
@<TRIPOS>SUBSTRUCTURE
     1 QSS         1 TEMP              0 ****  ****    0 ROOT
