@<TRIPOS>MOLECULE
QSS
   31    32     1     0     0
SMALL
No Charge or Current Charge


@<TRIPOS>ATOM
      1 C4         -22.1110   -17.8060     6.5340 ca         1 QSS      -0.110000
      2 C5         -22.5660   -16.9070     7.5220 ca         1 QSS       0.189000
      3 C6         -23.5800   -14.6570     6.9790 c6         1 QSS       0.182800
      4 N1         -22.3940   -15.5000     7.3330 nh         1 QSS      -0.785400
      5 C7         -23.3440   -13.1360     7.2630 c6         1 QSS       0.162800
      6 N2         -22.0970   -12.6130     6.6240 n3         1 QSS      -0.718600
      7 C9         -20.9250   -13.4380     7.0500 c6         1 QSS       0.162800
      8 C10        -21.1190   -14.9630     6.7560 c6         1 QSS       0.182800
      9 C          -23.1960   -17.4380     8.6950 ca         1 QSS       0.281000
     10 C3         -22.2710   -19.1940     6.6940 ca         1 QSS      -0.142000
     11 C2         -22.8870   -19.7040     7.8460 ca         1 QSS      -0.083000
     12 C1         -23.3460   -18.8280     8.8430 ca         1 QSS      -0.172000
     13 H1         -21.6400   -17.4310     5.6300 ha         1 QSS       0.111000
     14 H2         -24.4670   -14.9830     7.5420 h1         1 QSS       0.046200
     15 H3         -23.8130   -14.7810     5.9110 h1         1 QSS       0.046200
     16 H4         -24.2190   -12.5740     6.9040 h1         1 QSS       0.036200
     17 H5         -23.2960   -12.9900     8.3530 h1         1 QSS       0.036200
     18 H6         -20.9980   -10.8100     6.3430 h1         1 QSS       0.030033
     19 H7         -22.7540   -10.5910     6.4970 h1         1 QSS       0.030033
     20 H8         -21.7750   -10.9620     7.9370 h1         1 QSS       0.030033
     21 H10        -20.0140   -13.0980     6.5360 h1         1 QSS       0.036200
     22 H11        -20.7490   -13.3120     8.1290 h1         1 QSS       0.036200
     23 H12        -21.1120   -15.1100     5.6660 h1         1 QSS       0.046200
     24 H13        -20.2570   -15.5090     7.1670 h1         1 QSS       0.046200
     25 H14        -23.8330   -17.0190    10.6320 hn         1 QSS       0.448500
     26 H15        -23.3630   -15.6430     9.6760 hn         1 QSS       0.448500
     27 H16        -21.9170   -19.8730     5.9220 ha         1 QSS       0.112000
     28 H17        -23.0090   -20.7790     7.9680 ha         1 QSS       0.110000
     29 H18        -23.8200   -19.2330     9.7330 ha         1 QSS       0.111000
     30 C8         -21.8950   -11.1680     6.8650 c3         1 QSS       0.154100
     31 N          -23.6450   -16.6210     9.7150 nv         1 QSS      -1.063000
@<TRIPOS>BOND
     1     1     2 ar  
     2     1    10 ar  
     3     1    13 1   
     4     2     4 1   
     5     2     9 ar  
     6     3     4 1   
     7     3     5 1   
     8     3    14 1   
     9     3    15 1   
    10     4     8 1   
    11     5     6 1   
    12     5    16 1   
    13     5    17 1   
    14     6     7 1   
    15     6    30 1   
    16     7     8 1   
    17     7    21 1   
    18     7    22 1   
    19     8    23 1   
    20     8    24 1   
    21     9    12 ar  
    22     9    31 1   
    23    10    11 ar  
    24    10    27 1   
    25    11    12 ar  
    26    11    28 1   
    27    12    29 1   
    28    18    30 1   
    29    19    30 1   
    30    20    30 1   
    31    25    31 1   
    32    26    31 1   
@<TRIPOS>SUBSTRUCTURE
     1 QSS         1 TEMP              0 ****  ****    0 ROOT
