@<TRIPOS>MOLECULE
QST
   33    33     1     0     0
SMALL
No Charge or Current Charge


@<TRIPOS>ATOM
      1 C02         26.5110     3.2350    15.4280 c3         1 QST       0.093600
      2 C03         27.9680     2.8520    15.8340 c5         1 QST       0.320200
      3 C04         28.8460     2.7160    14.5070 c          1 QST       0.561100
      4 C06         29.0570     1.3860    12.4770 c3         1 QST       0.164600
      5 C07         30.3000     0.5490    12.8410 c3         1 QST      -0.118100
      6 C10         29.1540     1.7920    18.0650 c5         1 QST       0.172000
      7 C11         30.2400     0.7020    18.2340 c3         1 QST      -0.072100
      8 C12         28.3610     1.9360    19.3920 c3         1 QST      -0.072100
      9 C13         29.7140     3.1320    17.4870 c5         1 QST       0.032500
     10 C14         30.4910     3.9300    18.6170 c          1 QST       0.735000
     11 N17         28.5210     3.8080    16.8500 n7         1 QST      -0.837400
     12 O05         28.3520     1.7230    13.6880 os         1 QST      -0.441100
     13 O08         29.8220     3.4030    14.2170 o          1 QST      -0.488000
     14 O15         29.9400     4.8500    19.2100 o          1 QST      -0.711500
     15 O16         31.6800     3.6900    18.7880 o          1 QST      -0.711500
     16 S01         25.2350     3.4870    16.7640 sh         1 QST      -0.349800
     17 S09         27.9550     1.2160    16.7610 ss         1 QST      -0.519000
     18 H1          26.5540     4.1640    14.8450 h1         1 QST       0.057700
     19 H2          26.1220     2.4550    14.7620 h1         1 QST       0.057700
     20 H3          29.3490     2.2840    11.9160 h1         1 QST       0.045700
     21 H4          28.4100     0.7830    11.8280 h1         1 QST       0.045700
     22 H5          30.8030     0.2070    11.9290 hc         1 QST       0.044700
     23 H6          31.0200     1.1330    13.4260 hc         1 QST       0.044700
     24 H7          30.0120    -0.3350    13.4230 hc         1 QST       0.044700
     25 H8          30.9670     0.9770    19.0070 hc         1 QST       0.042033
     26 H9          29.7970    -0.2580    18.5240 hc         1 QST       0.042033
     27 H10         30.7900     0.5440    17.3000 hc         1 QST       0.042033
     28 H11         29.0140     2.2280    20.2230 hc         1 QST       0.042033
     29 H12         27.5720     2.6920    19.3050 hc         1 QST       0.042033
     30 H13         27.8810     0.9910    19.6690 hc         1 QST       0.042033
     31 H14         30.4590     2.9110    16.7110 h1         1 QST       0.037700
     32 H15         28.8080     4.6800    16.3850 hn         1 QST       0.461000
     33 H18         24.2080     3.7840    15.9340 hs         1 QST       0.145800
@<TRIPOS>BOND
     1     1     2 1   
     2     1    16 1   
     3     1    18 1   
     4     1    19 1   
     5     2     3 1   
     6     2    11 1   
     7     2    17 1   
     8     3    12 1   
     9     3    13 2   
    10     4     5 1   
    11     4    12 1   
    12     4    20 1   
    13     4    21 1   
    14     5    22 1   
    15     5    23 1   
    16     5    24 1   
    17     6     7 1   
    18     6     8 1   
    19     6     9 1   
    20     6    17 1   
    21     7    25 1   
    22     7    26 1   
    23     7    27 1   
    24     8    28 1   
    25     8    29 1   
    26     8    30 1   
    27     9    10 1   
    28     9    11 1   
    29     9    31 1   
    30    10    14 1   
    31    10    15 1   
    32    11    32 1   
    33    16    33 1   
@<TRIPOS>SUBSTRUCTURE
     1 QST         1 TEMP              0 ****  ****    0 ROOT
