@<TRIPOS>MOLECULE
QST
   33    33     1     0     0
SMALL
bcc


@<TRIPOS>ATOM
      1 C02         26.6480     3.2130    15.4320 c3         1 QST       0.045700
      2 C03         28.0740     2.8060    15.8060 c5         1 QST       0.272300
      3 C04         28.9040     2.6840    14.5220 c          1 QST       0.610100
      4 C06         29.0650     1.4930    12.4720 c3         1 QST       0.141400
      5 C07         30.1580     0.4720    12.7020 c3         1 QST      -0.118100
      6 C10         29.1760     1.7780    18.0460 c5         1 QST       0.124100
      7 C11         30.2650     0.7510    18.3220 c3         1 QST      -0.072100
      8 C12         28.2860     1.9660    19.2680 c3         1 QST      -0.072100
      9 C13         29.7270     3.1110    17.5020 c5         1 QST       0.032500
     10 C14         30.2680     4.0430    18.6150 c          1 QST       0.945600
     11 N17         28.6230     3.7020    16.7740 n7         1 QST      -0.782200
     12 O05         28.3700     1.8060    13.6890 os         1 QST      -0.417900
     13 O08         29.9030     3.3190    14.3020 o          1 QST      -0.537000
     14 O15         29.6660     5.1110    18.8130 o          1 QST      -0.816800
     15 O16         31.2820     3.6240    19.2080 o          1 QST      -0.816800
     16 S01         25.7040     3.6040    16.9380 sh         1 QST      -0.301900
     17 S09         28.1570     1.1670    16.6280 ss         1 QST      -0.423200
     18 H1          26.6840     4.0980    14.7910 h1         1 QST       0.057700
     19 H2          26.1410     2.4230    14.8820 h1         1 QST       0.057700
     20 H3          29.4590     2.4030    12.0170 h1         1 QST       0.045700
     21 H4          28.2970     1.0930    11.8120 h1         1 QST       0.045700
     22 H5          30.6020     0.2000    11.7440 hc         1 QST       0.044700
     23 H6          30.9520     0.8600    13.3390 hc         1 QST       0.044700
     24 H7          29.7610    -0.4360    13.1560 hc         1 QST       0.044700
     25 H8          30.8910     1.0930    19.1440 hc         1 QST       0.042033
     26 H9          29.8360    -0.2130    18.6010 hc         1 QST       0.042033
     27 H10         30.8990     0.6000    17.4480 hc         1 QST       0.042033
     28 H11         28.8860     2.2620    20.1310 hc         1 QST       0.042033
     29 H12         27.5300     2.7280    19.0910 hc         1 QST       0.042033
     30 H13         27.7790     1.0360    19.5240 hc         1 QST       0.042033
     31 H14         30.5740     2.8650    16.8430 h1         1 QST       0.037700
     32 H15         28.8490     4.6070    16.3810 hn         1 QST       0.405800
     33 H18         24.4970     3.3750    16.4050 hs         1 QST       0.145800
@<TRIPOS>BOND
     1     1     2 1   
     2     1    16 1   
     3     1    18 1   
     4     1    19 1   
     5     2     3 1   
     6     2    11 1   
     7     2    17 1   
     8     3    12 1   
     9     3    13 2   
    10     4     5 1   
    11     4    12 1   
    12     4    20 1   
    13     4    21 1   
    14     5    22 1   
    15     5    23 1   
    16     5    24 1   
    17     6     7 1   
    18     6     8 1   
    19     6     9 1   
    20     6    17 1   
    21     7    25 1   
    22     7    26 1   
    23     7    27 1   
    24     8    28 1   
    25     8    29 1   
    26     8    30 1   
    27     9    10 1   
    28     9    11 1   
    29     9    31 1   
    30    10    14 1   
    31    10    15 1   
    32    11    32 1   
    33    16    33 1   
@<TRIPOS>SUBSTRUCTURE
     1 QST         1 TEMP              0 ****  ****    0 ROOT
