@<TRIPOS>MOLECULE
QSV
   53    55     1     0     0
SMALL
No Charge or Current Charge


@<TRIPOS>ATOM
      1 N1           7.3880    -0.2950    -0.4170 n2         1 QSV      -0.384900
      2 C4           8.0920     0.7500    -3.8400 ca         1 QSV      -0.091500
      3 C5           7.4790     0.8710    -5.1020 ca         1 QSV      -0.090000
      4 C6           7.9810     0.4330    -1.3250 ce         1 QSV       0.370400
      5 C7           9.2500     1.2330    -1.0450 c3         1 QSV      -0.160900
      6 C8           7.4510    -1.4180     1.7560 c2         1 QSV       0.846100
      7 C1           5.2770     0.6630    -4.0310 cp         1 QSV      -0.048000
      8 C2           5.9000     0.5410    -2.7690 ca         1 QSV      -0.040500
      9 C3           7.3140     0.6070    -2.6600 ca         1 QSV      -0.114400
     10 C9           8.0670    -2.3190     4.0110 c3         1 QSV       0.205600
     11 C10          1.1550     0.6340    -5.2420 ca         1 QSV      -0.091500
     12 C17          1.4200     0.4640    -3.8570 ca         1 QSV      -0.114400
     13 C16          2.7650     0.4860    -3.4030 ca         1 QSV      -0.040500
     14 C15          3.8250     0.6320    -4.3250 cp         1 QSV      -0.048000
     15 C11          2.2050     0.7810    -6.1680 ca         1 QSV      -0.090000
     16 C0           3.5170     0.7710    -5.6840 ca         1 QSV      -0.129000
     17 C19          6.0830     0.8280    -5.1630 ca         1 QSV      -0.129000
     18 S0           5.0380     0.9460    -6.6140 ss         1 QSV       0.164000
     19 N2           7.9920    -0.6250     0.7860 nu         1 QSV      -0.609000
     20 N3           6.4900    -2.2160     1.5970 n2         1 QSV      -0.887600
     21 N4           8.1160    -1.3260     2.9230 nu         1 QSV      -0.952400
     22 C12          0.2900     0.3570    -2.8740 ce         1 QSV       0.370400
     23 C13         -0.9500    -0.4310    -3.2850 c3         1 QSV      -0.160900
     24 N5           0.4570     0.8390    -1.6720 n2         1 QSV      -0.384900
     25 N6          -0.5780     0.9080    -0.7470 nu         1 QSV      -0.609000
     26 C14         -0.4950     1.4100     0.5170 c2         1 QSV       0.846100
     27 N7          -1.4580     1.3890     1.3150 n2         1 QSV      -0.887600
     28 N8           0.7510     1.6760     0.9270 nu         1 QSV      -0.952400
     29 C18          1.0990     2.8300     1.7700 c3         1 QSV       0.205600
     30 H4           9.1780     0.7580    -3.7860 ha         1 QSV       0.112000
     31 H5           8.0760     0.9850    -6.0040 ha         1 QSV       0.122500
     32 H72          9.1720     1.7850    -0.1010 hc         1 QSV       0.048200
     33 H71         10.1260     0.5760    -0.9830 hc         1 QSV       0.048200
     34 H73          9.4490     1.9790    -1.8230 hc         1 QSV       0.048200
     35 H2           5.2890     0.4070    -1.8800 ha         1 QSV       0.141500
     36 H92          8.7360    -2.0210     4.8290 h1         1 QSV       0.037867
     37 H93          7.0490    -2.4060     4.4150 h1         1 QSV       0.037867
     38 H91          8.3870    -3.3060     3.6480 h1         1 QSV       0.037867
     39 H1           0.1310     0.6650    -5.6070 ha         1 QSV       0.112000
     40 H6           2.9860     0.3790    -2.3440 ha         1 QSV       0.141500
     41 H3           2.0020     0.9080    -7.2290 ha         1 QSV       0.122500
     42 H01          8.9440    -0.3500     1.0190 hn         1 QSV       0.493500
     43 H02          6.3620    -2.6670     2.5050 hn         1 QSV       0.387400
     44 H03          8.3350    -0.3700     3.1920 hn         1 QSV       0.490500
     45 H75         -1.2060    -1.1880    -2.5350 hc         1 QSV       0.048200
     46 H74         -1.8150     0.2310    -3.4080 hc         1 QSV       0.048200
     47 H76         -0.8050    -0.9670    -4.2290 hc         1 QSV       0.048200
     48 H04         -1.5280     0.5970    -0.9480 hn         1 QSV       0.493500
     49 H05         -1.0610     1.6930     2.2100 hn         1 QSV       0.387400
     50 H06          1.3680     1.5010     0.1400 hn         1 QSV       0.490500
     51 H95          2.1840     2.8670     1.9350 h1         1 QSV       0.037867
     52 H96          0.7910     3.7670     1.2860 h1         1 QSV       0.037867
     53 H94          0.6050     2.7630     2.7490 h1         1 QSV       0.037867
@<TRIPOS>BOND
     1     1     4 2   
     2     1    19 1   
     3     2     3 ar  
     4     2     9 ar  
     5     2    30 1   
     6     3    17 ar  
     7     3    31 1   
     8     4     5 1   
     9     4     9 1   
    10     5    32 1   
    11     5    33 1   
    12     5    34 1   
    13     6    19 1   
    14     6    20 2   
    15     6    21 1   
    16     7     8 ar  
    17     7    14 1   
    18     7    17 ar  
    19     8     9 ar  
    20     8    35 1   
    21    10    21 1   
    22    10    36 1   
    23    10    37 1   
    24    10    38 1   
    25    11    12 ar  
    26    11    15 ar  
    27    11    39 1   
    28    12    13 ar  
    29    12    22 1   
    30    13    14 ar  
    31    13    40 1   
    32    14    16 ar  
    33    15    16 ar  
    34    15    41 1   
    35    16    18 1   
    36    17    18 1   
    37    19    42 1   
    38    20    43 1   
    39    21    44 1   
    40    22    23 1   
    41    22    24 2   
    42    23    45 1   
    43    23    46 1   
    44    23    47 1   
    45    24    25 1   
    46    25    26 1   
    47    25    48 1   
    48    26    27 2   
    49    26    28 1   
    50    27    49 1   
    51    28    29 1   
    52    28    50 1   
    53    29    51 1   
    54    29    52 1   
    55    29    53 1   
@<TRIPOS>SUBSTRUCTURE
     1 QSV         1 TEMP              0 ****  ****    0 ROOT
