@<TRIPOS>MOLECULE
QSV
   53    55     1     0     0
SMALL
bcc


@<TRIPOS>ATOM
      1 N1           7.2000     0.1050    -0.4650 n2         1 QSV      -0.384900
      2 C4           7.9980     0.5930    -3.9620 ca         1 QSV      -0.109500
      3 C5           7.3720     0.7080    -5.1920 ca         1 QSV      -0.108000
      4 C6           7.9540     0.3780    -1.4600 ce         1 QSV       0.370400
      5 C7           9.4420     0.5700    -1.4060 c3         1 QSV      -0.160900
      6 C8           6.8620    -0.4190     1.8020 c2         1 QSV       0.846100
      7 C1           5.2330     0.6390    -4.0540 cp         1 QSV      -0.048000
      8 C2           5.8780     0.5220    -2.8320 ca         1 QSV      -0.058500
      9 C3           7.2690     0.5020    -2.7660 ca         1 QSV      -0.114400
     10 C9           6.8580    -0.7810     4.2160 c3         1 QSV       0.205600
     11 C10          1.1970     0.8100    -5.2240 ca         1 QSV      -0.109500
     12 C17          1.4420     0.6720    -3.8490 ca         1 QSV      -0.114400
     13 C16          2.7640     0.6110    -3.4140 ca         1 QSV      -0.058500
     14 C15          3.8100     0.6850    -4.3200 cp         1 QSV      -0.048000
     15 C11          2.2280     0.8840    -6.1460 ca         1 QSV      -0.108000
     16 C0           3.5360     0.8190    -5.6880 ca         1 QSV      -0.002100
     17 C19          5.9860     0.7350    -5.2330 ca         1 QSV      -0.002100
     18 S0           4.9870     0.8870    -6.6570 ss         1 QSV      -0.089800
     19 N2           7.6920    -0.0340     0.7630 nu         1 QSV      -0.553800
     20 N3           5.6280    -0.6780     1.6020 n2         1 QSV      -0.887600
     21 N4           7.5520    -0.5070     2.9820 nu         1 QSV      -0.897200
     22 C12          0.3270     0.5940    -2.8780 ce         1 QSV       0.370400
     23 C13         -1.0770     0.5580    -3.4040 c3         1 QSV      -0.160900
     24 N5           0.6670     0.5660    -1.6470 n2         1 QSV      -0.384900
     25 N6          -0.2060     0.4930    -0.6520 nu         1 QSV      -0.553800
     26 C14          0.2300     0.4920     0.6630 c2         1 QSV       0.846100
     27 N7          -0.6720     0.4720     1.5730 n2         1 QSV      -0.887600
     28 N8           1.5760     0.4870     0.8150 nu         1 QSV      -0.897200
     29 C18          2.1950     0.6750     2.1020 c3         1 QSV       0.205600
     30 H4           9.0790     0.5670    -3.9460 ha         1 QSV       0.130000
     31 H5           7.9620     0.7750    -6.0960 ha         1 QSV       0.140500
     32 H72          9.8150     0.7720    -0.4030 hc         1 QSV       0.048200
     33 H71          9.9690    -0.3110    -1.7800 hc         1 QSV       0.048200
     34 H73          9.7470     1.4150    -2.0220 hc         1 QSV       0.048200
     35 H2           5.3010     0.4470    -1.9190 ha         1 QSV       0.159500
     36 H92          7.5860    -0.8090     5.0210 h1         1 QSV       0.037867
     37 H93          6.1020    -0.0290     4.4660 h1         1 QSV       0.037867
     38 H91          6.3700    -1.7560     4.1790 h1         1 QSV       0.037867
     39 H1           0.1810     0.8650    -5.5920 ha         1 QSV       0.130000
     40 H6           2.9750     0.5000    -2.3580 ha         1 QSV       0.159500
     41 H3           2.0080     0.9910    -7.2000 ha         1 QSV       0.140500
     42 H01          8.6910    -0.0710     0.9160 hn         1 QSV       0.438300
     43 H02          5.1590    -0.8950     2.4720 hn         1 QSV       0.387400
     44 H03          8.3710     0.0720     3.0700 hn         1 QSV       0.435300
     45 H75         -1.8310     0.4060    -2.6360 hc         1 QSV       0.048200
     46 H74         -1.3240     1.4910    -3.9140 hc         1 QSV       0.048200
     47 H76         -1.1950    -0.2470    -4.1300 hc         1 QSV       0.048200
     48 H04         -1.2080     0.4980    -0.7890 hn         1 QSV       0.438300
     49 H05         -0.2690     0.4690     2.5010 hn         1 QSV       0.387400
     50 H06          2.1260     0.6680    -0.0070 hn         1 QSV       0.435300
     51 H95          3.2730     0.6580     1.9640 h1         1 QSV       0.037867
     52 H96          1.9210     1.6240     2.5700 h1         1 QSV       0.037867
     53 H94          1.9380    -0.1320     2.7910 h1         1 QSV       0.037867
@<TRIPOS>BOND
     1     1     4 2   
     2     1    19 1   
     3     2     3 ar  
     4     2     9 ar  
     5     2    30 1   
     6     3    17 ar  
     7     3    31 1   
     8     4     5 1   
     9     4     9 1   
    10     5    32 1   
    11     5    33 1   
    12     5    34 1   
    13     6    19 1   
    14     6    20 2   
    15     6    21 1   
    16     7     8 ar  
    17     7    14 1   
    18     7    17 ar  
    19     8     9 ar  
    20     8    35 1   
    21    10    21 1   
    22    10    36 1   
    23    10    37 1   
    24    10    38 1   
    25    11    12 ar  
    26    11    15 ar  
    27    11    39 1   
    28    12    13 ar  
    29    12    22 1   
    30    13    14 ar  
    31    13    40 1   
    32    14    16 ar  
    33    15    16 ar  
    34    15    41 1   
    35    16    18 1   
    36    17    18 1   
    37    19    42 1   
    38    20    43 1   
    39    21    44 1   
    40    22    23 1   
    41    22    24 2   
    42    23    45 1   
    43    23    46 1   
    44    23    47 1   
    45    24    25 1   
    46    25    26 1   
    47    25    48 1   
    48    26    27 2   
    49    26    28 1   
    50    27    49 1   
    51    28    29 1   
    52    28    50 1   
    53    29    51 1   
    54    29    52 1   
    55    29    53 1   
@<TRIPOS>SUBSTRUCTURE
     1 QSV         1 TEMP              0 ****  ****    0 ROOT
