@<TRIPOS>MOLECULE
QSW
   29    31     1     0     0
SMALL
No Charge or Current Charge


@<TRIPOS>ATOM
      1 C1         -61.1360     4.0530    -6.7170 c6         1 QSW      -0.057400
      2 C3         -60.3870     4.0120    -8.0630 c6         1 QSW      -0.308400
      3 C4         -59.2880     2.5500    -5.6100 ca         1 QSW       0.001700
      4 C5         -58.2630     3.1110    -6.4270 ca         1 QSW      -0.218500
      5 C7         -56.5580     1.9070    -5.1600 ca         1 QSW       0.162000
      6 C8         -57.5520     1.3320    -4.3620 ca         1 QSW      -0.103000
      7 C9         -58.9020     1.6460    -4.5900 ca         1 QSW      -0.099000
      8 C10        -61.5890     2.9830    -4.4920 cx         1 QSW      -0.127700
      9 C11        -62.2540     1.7950    -3.8300 cx         1 QSW      -0.128400
     10 C12        -63.0980     2.8680    -4.4730 cx         1 QSW      -0.128400
     11 C6         -56.9080     2.7870    -6.1900 ca         1 QSW      -0.066000
     12 C2         -60.8070     2.8280    -5.8170 c6         1 QSW       0.004600
     13 F1         -55.2590     1.6030    -4.9430 f          1 QSW      -0.171000
     14 S1         -58.6250     4.2330    -7.7890 sy         1 QSW       1.052500
     15 H1         -60.9080     4.9870    -6.1820 hc         1 QSW       0.069200
     16 H2         -62.2170     4.0800    -6.9160 hc         1 QSW       0.069200
     17 H3         -60.6940     4.8230    -8.7340 h1         1 QSW       0.108700
     18 H4         -60.5050     3.0440    -8.5650 h1         1 QSW       0.108700
     19 H5         -57.2770     0.6400    -3.5700 ha         1 QSW       0.136000
     20 H6         -59.6490     1.1700    -3.9630 ha         1 QSW       0.125000
     21 H7         -61.1550     3.7340    -3.8340 hc         1 QSW       0.089700
     22 H8         -62.2020     0.8290    -4.3280 hc         1 QSW       0.074450
     23 H9         -62.2370     1.7460    -2.7430 hc         1 QSW       0.074450
     24 H10        -63.6490     3.5410    -3.8200 hc         1 QSW       0.074450
     25 H11        -63.6100     2.6160    -5.3990 hc         1 QSW       0.074450
     26 H12        -56.1200     3.2160    -6.8080 ha         1 QSW       0.153000
     27 H13        -61.2120     1.9440    -6.3310 hc         1 QSW       0.066700
     28 O1         -58.4190     5.6040    -7.3010 o          1 QSW      -0.517000
     29 O2         -57.9090     3.7600    -8.9800 o          1 QSW      -0.517000
@<TRIPOS>BOND
     1     1     2 1   
     2     1    12 1   
     3     1    15 1   
     4     1    16 1   
     5     2    14 1   
     6     2    17 1   
     7     2    18 1   
     8     3     4 ar  
     9     3     7 ar  
    10     3    12 1   
    11     4    11 ar  
    12     4    14 1   
    13     5     6 ar  
    14     5    11 ar  
    15     5    13 1   
    16     6     7 ar  
    17     6    19 1   
    18     7    20 1   
    19     8     9 1   
    20     8    10 1   
    21     8    12 1   
    22     8    21 1   
    23     9    10 1   
    24     9    22 1   
    25     9    23 1   
    26    10    24 1   
    27    10    25 1   
    28    11    26 1   
    29    12    27 1   
    30    14    28 2   
    31    14    29 2   
@<TRIPOS>SUBSTRUCTURE
     1 QSW         1 TEMP              0 ****  ****    0 ROOT
