@<TRIPOS>MOLECULE
QSW
   29    31     1     0     0
SMALL
abcg2


@<TRIPOS>ATOM
      1 C1         -61.0940     4.0560    -6.6880 c6         1 QSW      -0.057400
      2 C3         -60.3770     4.0010    -8.0260 c6         1 QSW      -0.308400
      3 C4         -59.3360     2.5530    -5.6140 ca         1 QSW       0.001700
      4 C5         -58.3220     3.0620    -6.4260 ca         1 QSW      -0.218500
      5 C7         -56.6430     1.9240    -5.1910 ca         1 QSW       0.162000
      6 C8         -57.6050     1.3870    -4.3560 ca         1 QSW      -0.103000
      7 C9         -58.9330     1.7030    -4.5810 ca         1 QSW      -0.099000
      8 C10        -61.5570     2.9670    -4.5110 cx         1 QSW      -0.127700
      9 C11        -62.1970     1.7850    -3.8490 cx         1 QSW      -0.128400
     10 C12        -63.0480     2.8310    -4.5010 cx         1 QSW      -0.128400
     11 C6         -56.9770     2.7590    -6.2310 ca         1 QSW      -0.066000
     12 C2         -60.8150     2.8290    -5.8240 c6         1 QSW       0.004600
     13 F1         -55.3550     1.6250    -4.9840 f          1 QSW      -0.171000
     14 S1         -58.6340     4.2070    -7.7530 sy         1 QSW       1.052500
     15 H1         -60.8280     4.9720    -6.1560 hc         1 QSW       0.069200
     16 H2         -62.1660     4.1090    -6.8800 hc         1 QSW       0.069200
     17 H3         -60.6720     4.8110    -8.6960 h1         1 QSW       0.108700
     18 H4         -60.5260     3.0480    -8.5360 h1         1 QSW       0.108700
     19 H5         -57.3250     0.7290    -3.5450 ha         1 QSW       0.136000
     20 H6         -59.6790     1.2770    -3.9250 ha         1 QSW       0.125000
     21 H7         -61.1410     3.7200    -3.8490 hc         1 QSW       0.089700
     22 H8         -62.1230     0.8220    -4.3390 hc         1 QSW       0.074450
     23 H9         -62.1820     1.7330    -2.7670 hc         1 QSW       0.074450
     24 H10        -63.6180     3.5020    -3.8720 hc         1 QSW       0.074450
     25 H11        -63.5380     2.5730    -5.4330 hc         1 QSW       0.074450
     26 H12        -56.2040     3.1560    -6.8770 ha         1 QSW       0.153000
     27 H13        -61.2240     1.9600    -6.3560 hc         1 QSW       0.066700
     28 O1         -58.3940     5.5560    -7.2440 o          1 QSW      -0.517000
     29 O2         -57.8760     3.7820    -8.9270 o          1 QSW      -0.517000
@<TRIPOS>BOND
     1     1     2 1   
     2     1    12 1   
     3     1    15 1   
     4     1    16 1   
     5     2    14 1   
     6     2    17 1   
     7     2    18 1   
     8     3     4 ar  
     9     3     7 ar  
    10     3    12 1   
    11     4    11 ar  
    12     4    14 1   
    13     5     6 ar  
    14     5    11 ar  
    15     5    13 1   
    16     6     7 ar  
    17     6    19 1   
    18     7    20 1   
    19     8     9 1   
    20     8    10 1   
    21     8    12 1   
    22     8    21 1   
    23     9    10 1   
    24     9    22 1   
    25     9    23 1   
    26    10    24 1   
    27    10    25 1   
    28    11    26 1   
    29    12    27 1   
    30    14    28 2   
    31    14    29 2   
@<TRIPOS>SUBSTRUCTURE
     1 QSW         1 TEMP              0 ****  ****    0 ROOT
