@<TRIPOS>MOLECULE
QSX
   62    67     1     0     0
SMALL
No Charge or Current Charge


@<TRIPOS>ATOM
      1 N1         -25.0330     4.7500    27.4770 n          1 QSX      -0.407800
      2 N3         -16.5640     4.7040    25.6220 nb         1 QSX      -0.643000
      3 C4         -26.9960     4.7480    28.7560 c5         1 QSX       0.141500
      4 C5         -25.6930     5.5890    28.5050 c5         1 QSX       0.107000
      5 C6         -23.9460     5.1510    26.6740 c          1 QSX       0.608100
      6 C7         -23.0810     6.3510    27.1210 c3         1 QSX      -0.148400
      7 C8         -21.8950     6.0300    28.1280 c6         1 QSX      -0.054700
      8 C10        -22.5530     7.6920    29.9990 c6         1 QSX       0.161600
      9 C13        -23.1020     3.0130    31.1230 ca         1 QSX      -0.064000
     10 C15        -22.4490     3.5850    28.8510 ca         1 QSX      -0.034000
     11 C17        -20.6590     5.5290    27.2640 c          1 QSX       0.621100
     12 C20        -15.7230     5.7600    25.5690 ca         1 QSX       0.343900
     13 C21        -16.0530     7.0320    26.0730 ca         1 QSX      -0.086000
     14 C22        -15.1290     8.0920    25.9940 ca         1 QSX      -0.077000
     15 C24        -16.7280     9.5660    27.0840 ca         1 QSX      -0.090000
     16 C26        -17.3220     7.2320    26.6600 ca         1 QSX      -0.030000
     17 O2         -20.7220     4.5310    26.5590 o          1 QSX      -0.558100
     18 N2         -19.5020     6.3030    27.3130 ns         1 QSX      -0.145000
     19 C18        -18.2180     6.1360    26.7130 ca         1 QSX      -0.071000
     20 C25        -17.6540     8.5110    27.1650 ca         1 QSX      -0.112000
     21 C23        -15.4680     9.3580    26.5000 ca         1 QSX      -0.113000
     22 C19        -17.7810     4.8940    26.1840 ca         1 QSX       0.330900
     23 C16        -22.3230     4.9580    29.1910 ca         1 QSX      -0.141300
     24 C14        -22.8370     2.6300    29.8040 ca         1 QSX       0.084000
     25 Cl         -23.0060     0.9440    29.3320 cl         1 QSX      -0.211000
     26 C12        -22.9910     4.3620    31.4840 ca         1 QSX      -0.141000
     27 C11        -22.6220     5.3280    30.5340 ca         1 QSX       0.141100
     28 O1         -22.5680     6.6340    30.9650 os         1 QSX      -0.344100
     29 C9         -21.5360     7.3590    28.8950 c6         1 QSX      -0.113400
     30 O          -23.6650     4.5180    25.6650 o          1 QSX      -0.617100
     31 C2         -25.8790     3.5740    27.1810 c5         1 QSX       0.088700
     32 C1         -27.1400     4.1500    26.4510 c5         1 QSX       0.131800
     33 C3         -26.4670     3.3070    28.5830 c5         1 QSX      -0.130400
     34 N          -27.8650     4.9000    27.5400 n3         1 QSX      -0.712600
     35 C          -29.2810     4.5050    27.7160 c3         1 QSX       0.148100
     36 H1         -27.4930     4.9660    29.7120 h1         1 QSX       0.084700
     37 H2         -25.0830     5.6610    29.4130 h1         1 QSX       0.057200
     38 H3         -25.9230     6.6010    28.1460 h1         1 QSX       0.057200
     39 H4         -22.6720     6.8310    26.2230 hc         1 QSX       0.062700
     40 H5         -23.7530     7.0650    27.6000 hc         1 QSX       0.062700
     41 H6         -22.2750     8.6270    30.5040 h1         1 QSX       0.058200
     42 H7         -23.5640     7.8190    29.5920 h1         1 QSX       0.058200
     43 H8         -23.4000     2.2700    31.8590 ha         1 QSX       0.132000
     44 H9         -22.2770     3.2330    27.8400 ha         1 QSX       0.151000
     45 H11        -14.1510     7.9380    25.5420 ha         1 QSX       0.119000
     46 H12        -16.9890    10.5470    27.4740 ha         1 QSX       0.113000
     47 H13        -19.5790     7.1310    27.8860 hn         1 QSX       0.150000
     48 H14        -18.6210     8.7060    27.6190 ha         1 QSX       0.105000
     49 H15        -14.7550    10.1770    26.4390 ha         1 QSX       0.118000
     50 H16        -18.4060     4.0050    26.2240 h4         1 QSX       0.048100
     51 H17        -23.2060     4.6680    32.5050 ha         1 QSX       0.133000
     52 H18        -20.5640     7.2690    29.4000 hc         1 QSX       0.066700
     53 H19        -21.4530     8.2060    28.1980 hc         1 QSX       0.066700
     54 H20        -25.3710     2.7320    26.6880 h1         1 QSX       0.111700
     55 H21        -26.8620     4.8030    25.6120 h1         1 QSX       0.059200
     56 H22        -27.7520     3.3330    26.0450 h1         1 QSX       0.059200
     57 H23        -27.2510     2.5410    28.5930 hc         1 QSX       0.071700
     58 H24        -25.7090     3.0330    29.3270 hc         1 QSX       0.071700
     59 H26        -29.7500     5.0970    28.5120 h1         1 QSX       0.033700
     60 H27        -29.8450     4.6740    26.7890 h1         1 QSX       0.033700
     61 H28        -29.3670     3.4430    27.9810 h1         1 QSX       0.033700
     62 H10        -14.7510     5.5770    25.1110 h4         1 QSX       0.021100
@<TRIPOS>BOND
     1     1     4 1   
     2     1     5 1   
     3     1    31 1   
     4     2    12 ar  
     5     2    22 ar  
     6     3     4 1   
     7     3    33 1   
     8     3    34 1   
     9     3    36 1   
    10     4    37 1   
    11     4    38 1   
    12     5     6 1   
    13     5    30 2   
    14     6     7 1   
    15     6    39 1   
    16     6    40 1   
    17     7    11 1   
    18     7    23 1   
    19     7    29 1   
    20     8    28 1   
    21     8    29 1   
    22     8    41 1   
    23     8    42 1   
    24     9    24 ar  
    25     9    26 ar  
    26     9    43 1   
    27    10    23 ar  
    28    10    24 ar  
    29    10    44 1   
    30    11    17 2   
    31    11    18 1   
    32    12    13 ar  
    33    12    62 1   
    34    13    14 ar  
    35    13    16 ar  
    36    14    21 ar  
    37    14    45 1   
    38    15    20 ar  
    39    15    21 ar  
    40    15    46 1   
    41    16    19 ar  
    42    16    20 ar  
    43    18    19 1   
    44    18    47 1   
    45    19    22 ar  
    46    20    48 1   
    47    21    49 1   
    48    22    50 1   
    49    23    27 ar  
    50    24    25 1   
    51    26    27 ar  
    52    26    51 1   
    53    27    28 1   
    54    29    52 1   
    55    29    53 1   
    56    31    32 1   
    57    31    33 1   
    58    31    54 1   
    59    32    34 1   
    60    32    55 1   
    61    32    56 1   
    62    33    57 1   
    63    33    58 1   
    64    34    35 1   
    65    35    59 1   
    66    35    60 1   
    67    35    61 1   
@<TRIPOS>SUBSTRUCTURE
     1 QSX         1 TEMP              0 ****  ****    0 ROOT
