@<TRIPOS>MOLECULE
QSX
   62    67     1     0     0
SMALL
abcg2


@<TRIPOS>ATOM
      1 N1         -24.6410     4.9400    27.4480 n          1 QSX      -0.407800
      2 N3         -17.2490     4.5490    25.3920 nb         1 QSX      -0.643000
      3 C4         -26.8000     4.6510    28.2270 c5         1 QSX       0.141500
      4 C5         -25.5520     5.5060    28.4680 c5         1 QSX       0.107000
      5 C6         -23.3950     5.3190    27.1450 c          1 QSX       0.608100
      6 C7         -22.8020     6.4570    27.9530 c3         1 QSX      -0.148400
      7 C8         -21.7060     5.9940    28.9560 c6         1 QSX      -0.054700
      8 C10        -22.2070     7.6200    30.8280 c6         1 QSX       0.161600
      9 C13        -23.4290     3.0800    31.6750 ca         1 QSX      -0.064000
     10 C15        -22.5460     3.6590    29.5040 ca         1 QSX      -0.034000
     11 C17        -20.4510     5.4230    28.2460 c          1 QSX       0.621100
     12 C20        -16.4760     5.5690    25.0990 ca         1 QSX       0.343900
     13 C21        -16.7460     6.8980    25.5010 ca         1 QSX      -0.086000
     14 C22        -15.8840     7.9690    25.1720 ca         1 QSX      -0.077000
     15 C24        -17.3160     9.4840    26.3810 ca         1 QSX      -0.090000
     16 C26        -17.9160     7.1450    26.2730 ca         1 QSX      -0.030000
     17 O2         -19.9080     4.3870    28.5950 o          1 QSX      -0.558100
     18 N2         -19.9410     6.2310    27.2760 ns         1 QSX      -0.145000
     19 C18        -18.7470     6.0260    26.5600 ca         1 QSX      -0.071000
     20 C25        -18.1740     8.4650    26.7140 ca         1 QSX      -0.112000
     21 C23        -16.1660     9.2410    25.6010 ca         1 QSX      -0.113000
     22 C19        -18.3780     4.7800    26.1070 ca         1 QSX       0.330900
     23 C16        -22.2910     4.9690    29.9180 ca         1 QSX      -0.141300
     24 C14        -23.1080     2.7390    30.3670 ca         1 QSX       0.084000
     25 CL         -23.4170     1.1070    29.7990 cl         1 QSX      -0.211000
     26 C12        -23.1830     4.3730    32.1000 ca         1 QSX      -0.141000
     27 C11        -22.6250     5.3160    31.2330 ca         1 QSX       0.141100
     28 O1         -22.4240     6.5540    31.7630 os         1 QSX      -0.344100
     29 C9         -21.2110     7.2200    29.7650 c6         1 QSX      -0.113400
     30 O          -22.7220     4.7620    26.2660 o          1 QSX      -0.617100
     31 C2         -25.3390     3.8170    26.7960 c5         1 QSX       0.088700
     32 C1         -26.4390     4.4240    25.9140 c5         1 QSX       0.131800
     33 C3         -26.1690     3.2740    27.9650 c5         1 QSX      -0.130400
     34 N          -27.3590     5.0490    26.9110 n3         1 QSX      -0.712600
     35 C          -28.7490     4.6520    26.7280 c3         1 QSX       0.148100
     36 H1         -27.5400     4.7310    29.0190 h1         1 QSX       0.084700
     37 H2         -25.1510     5.3660    29.4730 h1         1 QSX       0.057200
     38 H3         -25.7450     6.5630    28.2900 h1         1 QSX       0.057200
     39 H4         -22.3900     7.1720    27.2400 hc         1 QSX       0.062700
     40 H5         -23.5680     6.9850    28.5130 hc         1 QSX       0.062700
     41 H6         -21.8330     8.4540    31.4170 h1         1 QSX       0.058200
     42 H7         -23.1700     7.9040    30.3950 h1         1 QSX       0.058200
     43 H8         -23.8660     2.3530    32.3450 ha         1 QSX       0.132000
     44 H9         -22.2940     3.3540    28.5000 ha         1 QSX       0.151000
     45 H11        -14.9990     7.7650    24.5810 ha         1 QSX       0.119000
     46 H12        -17.5200    10.4890    26.7280 ha         1 QSX       0.113000
     47 H13        -20.4220     7.0940    27.0860 hn         1 QSX       0.150000
     48 H14        -19.0380     8.6760    27.3280 ha         1 QSX       0.105000
     49 H15        -15.5060    10.0610    25.3500 ha         1 QSX       0.118000
     50 H16        -19.0010     3.9230    26.3140 h4         1 QSX       0.048100
     51 H17        -23.4280     4.6770    33.1090 ha         1 QSX       0.133000
     52 H18        -20.2610     6.9770    30.2460 hc         1 QSX       0.066700
     53 H19        -21.0370     8.0680    29.1010 hc         1 QSX       0.066700
     54 H20        -24.6460     3.1530    26.2950 h1         1 QSX       0.111700
     55 H21        -26.0450     5.1630    25.2150 h1         1 QSX       0.059200
     56 H22        -26.9440     3.6370    25.3450 h1         1 QSX       0.059200
     57 H23        -26.8900     2.5200    27.6550 hc         1 QSX       0.071700
     58 H24        -25.5620     2.8990    28.7860 hc         1 QSX       0.071700
     59 H26        -29.3730     5.1470    27.4730 h1         1 QSX       0.033700
     60 H27        -29.0860     4.9680    25.7390 h1         1 QSX       0.033700
     61 H28        -28.9070     3.5650    26.8070 h1         1 QSX       0.033700
     62 H10        -15.5820     5.3680    24.5150 h4         1 QSX       0.021100
@<TRIPOS>BOND
     1     1     4 1   
     2     1     5 1   
     3     1    31 1   
     4     2    12 ar  
     5     2    22 ar  
     6     3     4 1   
     7     3    33 1   
     8     3    34 1   
     9     3    36 1   
    10     4    37 1   
    11     4    38 1   
    12     5     6 1   
    13     5    30 2   
    14     6     7 1   
    15     6    39 1   
    16     6    40 1   
    17     7    11 1   
    18     7    23 1   
    19     7    29 1   
    20     8    28 1   
    21     8    29 1   
    22     8    41 1   
    23     8    42 1   
    24     9    24 ar  
    25     9    26 ar  
    26     9    43 1   
    27    10    23 ar  
    28    10    24 ar  
    29    10    44 1   
    30    11    17 2   
    31    11    18 1   
    32    12    13 ar  
    33    12    62 1   
    34    13    14 ar  
    35    13    16 ar  
    36    14    21 ar  
    37    14    45 1   
    38    15    20 ar  
    39    15    21 ar  
    40    15    46 1   
    41    16    19 ar  
    42    16    20 ar  
    43    18    19 1   
    44    18    47 1   
    45    19    22 ar  
    46    20    48 1   
    47    21    49 1   
    48    22    50 1   
    49    23    27 ar  
    50    24    25 1   
    51    26    27 ar  
    52    26    51 1   
    53    27    28 1   
    54    29    52 1   
    55    29    53 1   
    56    31    32 1   
    57    31    33 1   
    58    31    54 1   
    59    32    34 1   
    60    32    55 1   
    61    32    56 1   
    62    33    57 1   
    63    33    58 1   
    64    34    35 1   
    65    35    59 1   
    66    35    60 1   
    67    35    61 1   
@<TRIPOS>SUBSTRUCTURE
     1 QSX         1 TEMP              0 ****  ****    0 ROOT
