@<TRIPOS>MOLECULE
QSY
   56    59     1     0     0
SMALL
abcg2


@<TRIPOS>ATOM
      1 C1          -6.5080   -12.0770    -6.8220 ca         1 QSY       0.128100
      2 N1          -3.1460   -11.0530    -8.9790 na         1 QSY      -0.179700
      3 O1          -7.6140   -12.3530    -6.1000 os         1 QSY      -0.331100
      4 C2          -6.1530   -10.7070    -6.8660 ca         1 QSY      -0.082000
      5 N2          -1.6160   -13.9620   -10.5570 n          1 QSY      -0.358300
      6 O2          -0.8300   -11.8040   -10.7140 o          1 QSY      -0.552000
      7 C3          -5.0530   -10.2620    -7.5570 ca         1 QSY      -0.103000
      8 N3          -3.4940   -14.5690    -9.2580 nc         1 QSY      -0.535300
      9 C4          -4.2790   -11.2130    -8.2270 ca         1 QSY      -0.052200
     10 N4          -3.1200   -13.1920   -13.2460 nx         1 QSY      -0.666000
     11 C5          -4.6220   -12.5770    -8.1910 ca         1 QSY      -0.057800
     12 C6          -5.7480   -13.0200    -7.4830 ca         1 QSY      -0.144000
     13 C7          -8.0320   -13.6990    -6.0150 c3         1 QSY       0.142900
     14 C8          -2.7530   -12.2770    -9.4220 cd         1 QSY      -0.204300
     15 C9          -3.6310   -13.2480    -8.9660 cc         1 QSY       0.117400
     16 C10         -1.6430   -12.5950   -10.2610 c          1 QSY       0.568200
     17 C11         -2.5060   -14.8610   -10.0250 cd         1 QSY       0.427800
     18 C12         -0.5930   -14.4720   -11.4760 c3         1 QSY       0.076000
     19 C13         -1.1050   -14.6730   -12.8980 c3         1 QSY      -0.126400
     20 C14         -1.6660   -13.4290   -13.5730 c3         1 QSY       0.101600
     21 C15         -3.4870   -11.7230   -13.2320 c6         1 QSY       0.111300
     22 C16         -3.9980   -14.0330   -14.1010 c3         1 QSY       0.072900
     23 C17         -4.7900   -11.5040   -12.4770 c6         1 QSY      -0.097400
     24 C18         -5.0640   -10.0060   -12.3640 c6         1 QSY      -0.071900
     25 C19         -5.0830    -9.3450   -13.7380 c6         1 QSY      -0.085400
     26 C20         -3.7950    -9.6180   -14.5070 c6         1 QSY      -0.071900
     27 C21         -3.5210   -11.1180   -14.6240 c6         1 QSY      -0.097400
     28 H7          -2.6610   -10.1860    -9.1430 hn         1 QSY       0.375000
     29 H1          -6.7740    -9.9960    -6.3350 ha         1 QSY       0.143000
     30 H2          -4.7980    -9.2110    -7.5760 ha         1 QSY       0.132000
     31 H29         -3.2780   -13.5090   -12.2890 hn         1 QSY       0.499000
     32 H3          -5.9910   -14.0740    -7.4710 ha         1 QSY       0.141000
     33 H4          -8.9320   -13.7070    -5.4060 h1         1 QSY       0.047700
     34 H5          -8.2690   -14.1160    -6.9980 h1         1 QSY       0.047700
     35 H6          -7.2780   -14.3320    -5.5390 h1         1 QSY       0.047700
     36 H8          -2.3310   -15.8930   -10.3060 h5         1 QSY       0.057800
     37 H10         -0.2320   -15.4220   -11.0850 h1         1 QSY       0.094200
     38 H9           0.2440   -13.7790   -11.4660 h1         1 QSY       0.094200
     39 H12         -1.8210   -15.4990   -12.9360 hc         1 QSY       0.081700
     40 H11         -0.2550   -15.0060   -13.4940 hc         1 QSY       0.081700
     41 H13         -1.1110   -12.5400   -13.2800 hx         1 QSY       0.104700
     42 H14         -1.6020   -13.5170   -14.6550 hx         1 QSY       0.104700
     43 H15         -2.6800   -11.2520   -12.6650 hx         1 QSY       0.104700
     44 H17         -5.0370   -13.8670   -13.8390 hx         1 QSY       0.094367
     45 H18         -3.8290   -13.7870   -15.1430 hx         1 QSY       0.094367
     46 H16         -3.7520   -15.0770   -13.9330 hx         1 QSY       0.094367
     47 H19         -5.6240   -11.9820   -12.9970 hc         1 QSY       0.061450
     48 H20         -4.7330   -11.9510   -11.4800 hc         1 QSY       0.061450
     49 H22         -4.2960    -9.5410   -11.7370 hc         1 QSY       0.063700
     50 H21         -6.0160    -9.8540   -11.8540 hc         1 QSY       0.063700
     51 H24         -5.2380    -8.2700   -13.6350 hc         1 QSY       0.062700
     52 H23         -5.9340    -9.7310   -14.3090 hc         1 QSY       0.062700
     53 H26         -2.9530    -9.1340   -14.0040 hc         1 QSY       0.063700
     54 H25         -3.8510    -9.1880   -15.5090 hc         1 QSY       0.063700
     55 H27         -4.3130   -11.5790   -15.2200 hc         1 QSY       0.061450
     56 H28         -2.5780   -11.2870   -15.1470 hc         1 QSY       0.061450
@<TRIPOS>BOND
     1     1     3 1   
     2     1     4 ar  
     3     1    12 ar  
     4     2     9 1   
     5     2    14 1   
     6     2    28 1   
     7     3    13 1   
     8     4     7 ar  
     9     4    29 1   
    10     5    16 1   
    11     5    17 1   
    12     5    18 1   
    13     6    16 2   
    14     7     9 ar  
    15     7    30 1   
    16     8    15 1   
    17     8    17 2   
    18     9    11 ar  
    19    10    20 1   
    20    10    21 1   
    21    10    22 1   
    22    10    31 1   
    23    11    12 ar  
    24    11    15 1   
    25    12    32 1   
    26    13    33 1   
    27    13    34 1   
    28    13    35 1   
    29    14    15 2   
    30    14    16 1   
    31    17    36 1   
    32    18    19 1   
    33    18    37 1   
    34    18    38 1   
    35    19    20 1   
    36    19    39 1   
    37    19    40 1   
    38    20    41 1   
    39    20    42 1   
    40    21    23 1   
    41    21    27 1   
    42    21    43 1   
    43    22    44 1   
    44    22    45 1   
    45    22    46 1   
    46    23    24 1   
    47    23    47 1   
    48    23    48 1   
    49    24    25 1   
    50    24    49 1   
    51    24    50 1   
    52    25    26 1   
    53    25    51 1   
    54    25    52 1   
    55    26    27 1   
    56    26    53 1   
    57    26    54 1   
    58    27    55 1   
    59    27    56 1   
@<TRIPOS>SUBSTRUCTURE
     1 QSY         1 TEMP              0 ****  ****    0 ROOT
