@<TRIPOS>MOLECULE
QSY
   56    59     1     0     0
SMALL
No Charge or Current Charge


@<TRIPOS>ATOM
      1 C1          -6.5130   -11.9400    -7.0520 ca         1 QSY       0.128100
      2 N1          -2.9790   -10.9420    -9.0440 na         1 QSY      -0.179700
      3 O1          -7.6820   -12.2800    -6.4000 os         1 QSY      -0.331100
      4 C2          -6.1380   -10.5750    -7.0690 ca         1 QSY      -0.082000
      5 N2          -1.4790   -14.0110   -10.6330 n          1 QSY      -0.358300
      6 O2          -0.6430   -11.8490   -10.7640 o          1 QSY      -0.552000
      7 C3          -4.9570   -10.1540    -7.7190 ca         1 QSY      -0.103000
      8 N3          -3.4700   -14.4930    -9.3360 nc         1 QSY      -0.535300
      9 C4          -4.1680   -11.1280    -8.3440 ca         1 QSY      -0.052200
     10 N4          -3.1070   -13.2550   -13.1000 nx         1 QSY      -0.666000
     11 C5          -4.5300   -12.4500    -8.3270 ca         1 QSY      -0.057800
     12 C6          -5.6950   -12.9040    -7.6950 ca         1 QSY      -0.144000
     13 C7          -8.1510   -13.6390    -6.3270 c3         1 QSY       0.142900
     14 C8          -2.6030   -12.2330    -9.5000 cd         1 QSY      -0.204300
     15 C9          -3.5260   -13.1510    -9.0640 cc         1 QSY       0.117400
     16 C10         -1.4720   -12.6370   -10.3330 c          1 QSY       0.568200
     17 C11         -2.4300   -14.8730   -10.0820 cd         1 QSY       0.427800
     18 C12         -0.4650   -14.5480   -11.5700 c3         1 QSY       0.076000
     19 C13         -1.0030   -14.7260   -13.0100 c3         1 QSY      -0.126400
     20 C14         -1.6680   -13.4580   -13.5870 c3         1 QSY       0.101600
     21 C15         -3.5050   -11.7750   -13.0290 c6         1 QSY       0.111300
     22 C16         -4.0950   -14.1420   -13.8790 c3         1 QSY       0.072900
     23 C17         -4.8600   -11.5890   -12.2990 c6         1 QSY      -0.097400
     24 C18         -5.1940   -10.0860   -12.1420 c6         1 QSY      -0.071900
     25 C19         -5.2250    -9.3820   -13.5220 c6         1 QSY      -0.085400
     26 C20         -3.8990    -9.5970   -14.2960 c6         1 QSY      -0.071900
     27 C21         -3.5610   -11.1040   -14.4260 c6         1 QSY      -0.097400
     28 H7          -2.4860   -10.0670    -9.2020 hn         1 QSY       0.375000
     29 H1          -6.7710    -9.8420    -6.5750 ha         1 QSY       0.143000
     30 H2          -4.6720    -9.1050    -7.7340 ha         1 QSY       0.132000
     31 H29         -3.1300   -13.6000   -12.1160 hn         1 QSY       0.499000
     32 H3          -5.9420   -13.9610    -7.7130 ha         1 QSY       0.141000
     33 H4          -9.0920   -13.6860    -5.7660 h1         1 QSY       0.047700
     34 H5          -8.3330   -14.0430    -7.3310 h1         1 QSY       0.047700
     35 H6          -7.4190   -14.2780    -5.8160 h1         1 QSY       0.047700
     36 H8          -2.3240   -15.9220   -10.3310 h5         1 QSY       0.057800
     37 H10         -0.1090   -15.5190   -11.1980 h1         1 QSY       0.094200
     38 H9           0.4120   -13.8870   -11.5940 h1         1 QSY       0.094200
     39 H12         -1.7060   -15.5660   -13.0490 hc         1 QSY       0.081700
     40 H11         -0.1600   -15.0000   -13.6560 hc         1 QSY       0.081700
     41 H13         -1.0690   -12.5870   -13.3060 hx         1 QSY       0.104700
     42 H14         -1.6840   -13.5150   -14.6790 hx         1 QSY       0.104700
     43 H15         -2.7240   -11.2810   -12.4400 hx         1 QSY       0.104700
     44 H17         -5.0950   -14.0530   -13.4480 hx         1 QSY       0.094367
     45 H18         -4.1230   -13.8230   -14.9230 hx         1 QSY       0.094367
     46 H16         -3.7750   -15.1850   -13.8320 hx         1 QSY       0.094367
     47 H19         -5.6670   -12.0820   -12.8560 hc         1 QSY       0.061450
     48 H20         -4.8280   -12.0640   -11.3120 hc         1 QSY       0.061450
     49 H22         -4.4490    -9.6050   -11.4940 hc         1 QSY       0.063700
     50 H21         -6.1650    -9.9700   -11.6400 hc         1 QSY       0.063700
     51 H24         -5.4100    -8.3070   -13.3890 hc         1 QSY       0.062700
     52 H23         -6.0660    -9.7700   -14.1160 hc         1 QSY       0.062700
     53 H26         -3.0800    -9.0790   -13.7770 hc         1 QSY       0.063700
     54 H25         -3.9710    -9.1430   -15.2930 hc         1 QSY       0.063700
     55 H27         -4.3140   -11.5960   -15.0560 hc         1 QSY       0.061450
     56 H28         -2.5990   -11.2180   -14.9410 hc         1 QSY       0.061450
@<TRIPOS>BOND
     1     1     3 1   
     2     1     4 ar  
     3     1    12 ar  
     4     2     9 1   
     5     2    14 1   
     6     2    28 1   
     7     3    13 1   
     8     4     7 ar  
     9     4    29 1   
    10     5    16 1   
    11     5    17 1   
    12     5    18 1   
    13     6    16 2   
    14     7     9 ar  
    15     7    30 1   
    16     8    15 1   
    17     8    17 2   
    18     9    11 ar  
    19    10    20 1   
    20    10    21 1   
    21    10    22 1   
    22    10    31 1   
    23    11    12 ar  
    24    11    15 1   
    25    12    32 1   
    26    13    33 1   
    27    13    34 1   
    28    13    35 1   
    29    14    15 2   
    30    14    16 1   
    31    17    36 1   
    32    18    19 1   
    33    18    37 1   
    34    18    38 1   
    35    19    20 1   
    36    19    39 1   
    37    19    40 1   
    38    20    41 1   
    39    20    42 1   
    40    21    23 1   
    41    21    27 1   
    42    21    43 1   
    43    22    44 1   
    44    22    45 1   
    45    22    46 1   
    46    23    24 1   
    47    23    47 1   
    48    23    48 1   
    49    24    25 1   
    50    24    49 1   
    51    24    50 1   
    52    25    26 1   
    53    25    51 1   
    54    25    52 1   
    55    26    27 1   
    56    26    53 1   
    57    26    54 1   
    58    27    55 1   
    59    27    56 1   
@<TRIPOS>SUBSTRUCTURE
     1 QSY         1 TEMP              0 ****  ****    0 ROOT
