@<TRIPOS>MOLECULE
QSZ
   29    31     1     0     0
SMALL
No Charge or Current Charge


@<TRIPOS>ATOM
      1 C11        -63.2880     2.4180    -5.2350 cx         1 QSZ      -0.126900
      2 C12        -62.3920     1.6420    -4.2970 cx         1 QSZ      -0.126900
      3 C10        -61.8310     2.2110    -5.5810 cx         1 QSZ      -0.127700
      4 C9         -58.9640     2.4590    -4.1310 ca         1 QSZ      -0.097000
      5 C8         -57.6650     1.9660    -3.9260 ca         1 QSZ      -0.103000
      6 C7         -56.7650     1.9080    -4.9980 ca         1 QSZ       0.162000
      7 C6         -57.1560     2.3440    -6.2710 ca         1 QSZ      -0.064000
      8 C5         -58.4610     2.8430    -6.4870 ca         1 QSZ      -0.216500
      9 C4         -59.3820     2.9030    -5.4050 ca         1 QSZ       0.000700
     10 C3         -60.6580     3.7070    -8.0980 c6         1 QSZ      -0.303400
     11 C2         -60.8380     3.3940    -5.5500 c6         1 QSZ       0.002600
     12 C1         -61.0720     4.3470    -6.7530 c6         1 QSZ      -0.052400
     13 F1         -55.5150     1.4340    -4.8020 f          1 QSZ      -0.171000
     14 S1         -58.8800     3.4200    -8.1460 sy         1 QSZ       1.050500
     15 H10        -63.6070     3.4100    -4.9230 hc         1 QSZ       0.073700
     16 H11        -64.0270     1.8620    -5.8070 hc         1 QSZ       0.073700
     17 H13        -62.5290     0.5650    -4.2390 hc         1 QSZ       0.073700
     18 H12        -62.1200     2.1160    -3.3560 hc         1 QSZ       0.073700
     19 H9         -61.6130     1.4920    -6.3670 hc         1 QSZ       0.083700
     20 H8         -59.6540     2.4930    -3.2910 ha         1 QSZ       0.120000
     21 H7         -57.3560     1.6270    -2.9410 ha         1 QSZ       0.136000
     22 H6         -56.4400     2.2970    -7.0890 ha         1 QSZ       0.153000
     23 H3         -60.8820     4.3590    -8.9510 h1         1 QSZ       0.108200
     24 H4         -61.1330     2.7310    -8.2500 h1         1 QSZ       0.108200
     25 H5         -61.0700     3.9840    -4.6510 hc         1 QSZ       0.069700
     26 H2         -60.5150     5.2820    -6.5950 hc         1 QSZ       0.067700
     27 H1         -62.1320     4.6360    -6.7950 hc         1 QSZ       0.067700
     28 O1         -58.2270     4.7230    -8.3330 o          1 QSZ      -0.518000
     29 O2         -58.6170     2.3260    -9.0910 o          1 QSZ      -0.518000
@<TRIPOS>BOND
     1     1     2 1   
     2     1     3 1   
     3     1    15 1   
     4     1    16 1   
     5     2     3 1   
     6     2    17 1   
     7     2    18 1   
     8     3    11 1   
     9     3    19 1   
    10     4     5 ar  
    11     4     9 ar  
    12     4    20 1   
    13     5     6 ar  
    14     5    21 1   
    15     6     7 ar  
    16     6    13 1   
    17     7     8 ar  
    18     7    22 1   
    19     8     9 ar  
    20     8    14 1   
    21     9    11 1   
    22    10    12 1   
    23    10    14 1   
    24    10    23 1   
    25    10    24 1   
    26    11    12 1   
    27    11    25 1   
    28    12    26 1   
    29    12    27 1   
    30    14    28 2   
    31    14    29 2   
@<TRIPOS>SUBSTRUCTURE
     1 QSZ         1 TEMP              0 ****  ****    0 ROOT
