@<TRIPOS>MOLECULE
QSZ
   29    31     1     0     0
SMALL
abcg2


@<TRIPOS>ATOM
      1 C11        -63.2340     2.4360    -5.1940 cx         1 QSZ      -0.126900
      2 C12        -62.3280     1.6810    -4.2680 cx         1 QSZ      -0.126900
      3 C10        -61.7990     2.2230    -5.5590 cx         1 QSZ      -0.127700
      4 C9         -58.9990     2.4610    -4.1700 ca         1 QSZ      -0.097000
      5 C8         -57.7330     1.9440    -3.9720 ca         1 QSZ      -0.103000
      6 C7         -56.8660     1.8750    -5.0490 ca         1 QSZ       0.162000
      7 C6         -57.2300     2.3170    -6.2980 ca         1 QSZ      -0.064000
      8 C5         -58.5100     2.8400    -6.4620 ca         1 QSZ      -0.216500
      9 C4         -59.4270     2.9230    -5.4170 ca         1 QSZ       0.000700
     10 C3         -60.6200     3.6360    -8.0870 c6         1 QSZ      -0.303400
     11 C2         -60.8520     3.4090    -5.5670 c6         1 QSZ       0.002600
     12 C1         -61.0790     4.2910    -6.7940 c6         1 QSZ      -0.052400
     13 F1         -55.6410     1.3660    -4.8690 f          1 QSZ      -0.171000
     14 S1         -58.8460     3.5030    -8.0780 sy         1 QSZ       1.050500
     15 H10        -63.5360     3.4340    -4.8970 hc         1 QSZ       0.073700
     16 H11        -63.9920     1.8880    -5.7390 hc         1 QSZ       0.073700
     17 H13        -62.4570     0.6100    -4.1770 hc         1 QSZ       0.073700
     18 H12        -62.0320     2.1700    -3.3480 hc         1 QSZ       0.073700
     19 H9         -61.6100     1.4850    -6.3330 hc         1 QSZ       0.083700
     20 H8         -59.6780     2.5140    -3.3290 ha         1 QSZ       0.120000
     21 H7         -57.4220     1.5970    -2.9950 ha         1 QSZ       0.136000
     22 H6         -56.5330     2.2500    -7.1250 ha         1 QSZ       0.153000
     23 H3         -60.8650     4.2370    -8.9660 h1         1 QSZ       0.108200
     24 H4         -61.0290     2.6350    -8.2310 h1         1 QSZ       0.108200
     25 H5         -61.0800     4.0220    -4.6880 hc         1 QSZ       0.069700
     26 H2         -60.5750     5.2520    -6.6700 hc         1 QSZ       0.067700
     27 H1         -62.1440     4.5100    -6.8780 hc         1 QSZ       0.067700
     28 O1         -58.2820     4.8510    -8.1230 o          1 QSZ      -0.518000
     29 O2         -58.3890     2.5400    -9.0760 o          1 QSZ      -0.518000
@<TRIPOS>BOND
     1     1     2 1   
     2     1     3 1   
     3     1    15 1   
     4     1    16 1   
     5     2     3 1   
     6     2    17 1   
     7     2    18 1   
     8     3    11 1   
     9     3    19 1   
    10     4     5 ar  
    11     4     9 ar  
    12     4    20 1   
    13     5     6 ar  
    14     5    21 1   
    15     6     7 ar  
    16     6    13 1   
    17     7     8 ar  
    18     7    22 1   
    19     8     9 ar  
    20     8    14 1   
    21     9    11 1   
    22    10    12 1   
    23    10    14 1   
    24    10    23 1   
    25    10    24 1   
    26    11    12 1   
    27    11    25 1   
    28    12    26 1   
    29    12    27 1   
    30    14    28 2   
    31    14    29 2   
@<TRIPOS>SUBSTRUCTURE
     1 QSZ         1 TEMP              0 ****  ****    0 ROOT
