@<TRIPOS>MOLECULE
QT0
   41    45     1     0     0
SMALL
No Charge or Current Charge


@<TRIPOS>ATOM
      1 C17        -47.0640   -34.1200    -0.5360 c          1 QT0       0.662100
      2 C14        -45.8090   -32.7690     0.6960 cc         1 QT0       0.513600
      3 C13        -45.2260   -31.4340     1.0780 c6         1 QT0      -0.104000
      4 C12        -43.7760   -31.2720     0.5280 c6         1 QT0      -0.069400
      5 C11        -42.9160   -30.3210     1.4040 c6         1 QT0      -0.100400
      6 C10        -43.7700   -29.2530     2.1310 c6         1 QT0       0.216800
      7 C20        -45.2710   -31.2480     2.6130 c6         1 QT0       0.219800
      8 C02        -50.3560   -28.9030     4.0830 ca         1 QT0       0.189000
      9 C03        -49.8130   -28.7420     5.3730 ca         1 QT0      -0.174000
     10 C04        -48.4290   -28.8800     5.5000 ca         1 QT0       0.008800
     11 C06        -46.2420   -28.9230     6.3150 ca         1 QT0       0.193500
     12 C07        -46.2210   -29.2170     4.9480 cp         1 QT0      -0.224000
     13 C08        -44.9730   -29.4780     4.3420 ca         1 QT0       0.424900
     14 C22        -43.9780   -29.1070     6.3970 ca         1 QT0       0.180900
     15 C24        -47.5890   -29.1690     4.4320 cp         1 QT0      -0.062000
     16 C25        -48.1260   -29.3060     3.1350 ca         1 QT0      -0.041000
     17 C26        -49.5240   -29.1780     2.9720 ca         1 QT0      -0.171000
     18 N05        -47.5980   -28.7420     6.6180 na         1 QT0      -0.331300
     19 N09        -44.8160   -29.8790     3.0030 nh         1 QT0      -0.767300
     20 N15        -45.6230   -33.9450     1.2240 n2         1 QT0      -0.470300
     21 N16        -46.4040   -34.7800     0.4590 ns         1 QT0      -0.401400
     22 N21        -43.8450   -29.4170     5.0840 nb         1 QT0      -0.286000
     23 N23        -45.1300   -28.8610     7.0620 nb         1 QT0      -0.231000
     24 O18        -46.6660   -32.8380    -0.3620 os         1 QT0      -0.405700
     25 O19        -47.8240   -34.5680    -1.3770 o          1 QT0      -0.496000
     26 H131       -45.8510   -30.6460     0.6370 hc         1 QT0       0.082700
     27 H122       -43.8230   -30.8940    -0.5030 hc         1 QT0       0.060200
     28 H121       -43.2730   -32.2480     0.4710 hc         1 QT0       0.060200
     29 H112       -42.1490   -29.8330     0.7870 hc         1 QT0       0.058200
     30 H111       -42.3730   -30.9080     2.1580 hc         1 QT0       0.058200
     31 H102       -44.2520   -28.6050     1.3830 h1         1 QT0       0.064200
     32 H101       -43.1010   -28.6060     2.7170 h1         1 QT0       0.064200
     33 H201       -46.2970   -31.4250     2.9680 h1         1 QT0       0.072200
     34 H202       -44.6320   -32.0070     3.0920 h1         1 QT0       0.072200
     35 H031       -50.4450   -28.5130     6.2260 ha         1 QT0       0.139000
     36 H221       -43.0610   -29.0610     6.9810 h5         1 QT0       0.050100
     37 H251       -47.4850   -29.4910     2.2780 ha         1 QT0       0.121000
     38 H261       -49.9650   -29.2830     1.9840 ha         1 QT0       0.134000
     39 H051       -47.9320   -28.5260     7.5500 hn         1 QT0       0.370000
     40 H161       -46.5210   -35.7910     0.5640 hn         1 QT0       0.501000
     41 F01        -51.6890   -28.7790     3.9020 f          1 QT0      -0.182000
@<TRIPOS>BOND
     1     1    21 1   
     2     1    24 1   
     3     1    25 2   
     4     2     3 1   
     5     2    20 2   
     6     2    24 1   
     7     3     4 1   
     8     3     7 1   
     9     3    26 1   
    10     4     5 1   
    11     4    27 1   
    12     4    28 1   
    13     5     6 1   
    14     5    29 1   
    15     5    30 1   
    16     6    19 1   
    17     6    31 1   
    18     6    32 1   
    19     7    19 1   
    20     7    33 1   
    21     7    34 1   
    22     8     9 ar  
    23     8    17 ar  
    24     8    41 1   
    25     9    10 ar  
    26     9    35 1   
    27    10    15 ar  
    28    10    18 1   
    29    11    12 ar  
    30    11    18 1   
    31    11    23 ar  
    32    12    13 ar  
    33    12    15 1   
    34    13    19 1   
    35    13    22 ar  
    36    14    22 ar  
    37    14    23 ar  
    38    14    36 1   
    39    15    16 ar  
    40    16    17 ar  
    41    16    37 1   
    42    17    38 1   
    43    18    39 1   
    44    20    21 1   
    45    21    40 1   
@<TRIPOS>SUBSTRUCTURE
     1 QT0         1 TEMP              0 ****  ****    0 ROOT
