@<TRIPOS>MOLECULE
QT0
   41    45     1     0     0
SMALL
abcg2


@<TRIPOS>ATOM
      1 C17        -46.3040   -34.5000    -0.1590 c          1 QT0       0.662100
      2 C14        -45.8460   -32.5120     0.7020 cc         1 QT0       0.513600
      3 C13        -45.0520   -31.2720     0.8800 c6         1 QT0      -0.104000
      4 C12        -43.7060   -31.5430     1.5780 c6         1 QT0      -0.069400
      5 C11        -42.8490   -30.2710     1.5430 c6         1 QT0      -0.100400
      6 C10        -43.7370   -29.0200     1.6670 c6         1 QT0       0.216800
      7 C20        -45.8650   -30.2150     1.6680 c6         1 QT0       0.219800
      8 C02        -50.3520   -29.4130     4.7610 ca         1 QT0       0.189000
      9 C03        -49.5490   -29.5340     5.8770 ca         1 QT0      -0.174000
     10 C04        -48.1790   -29.5000     5.6480 ca         1 QT0       0.008800
     11 C06        -45.9580   -29.3990     5.9310 ca         1 QT0       0.193500
     12 C07        -46.1750   -29.3520     4.5340 cp         1 QT0      -0.224000
     13 C08        -45.0010   -29.2400     3.7530 ca         1 QT0       0.424900
     14 C22        -43.7780   -29.0470     5.7070 ca         1 QT0       0.180900
     15 C24        -47.6160   -29.3760     4.3460 cp         1 QT0      -0.062000
     16 C25        -48.4860   -29.2310     3.2630 ca         1 QT0      -0.041000
     17 C26        -49.8590   -29.2530     3.4710 ca         1 QT0      -0.171000
     18 N05        -47.1570   -29.5340     6.5740 na         1 QT0      -0.331300
     19 N09        -44.9740   -29.3120     2.3920 nh         1 QT0      -0.767300
     20 N15        -46.9260   -32.8710     1.2950 n2         1 QT0      -0.470300
     21 N16        -47.2110   -34.1110     0.7630 ns         1 QT0      -0.401400
     22 N21        -43.8220   -29.0270     4.3800 nb         1 QT0      -0.286000
     23 N23        -44.7830   -29.2710     6.5520 nb         1 QT0      -0.231000
     24 O18        -45.4010   -33.4420    -0.1990 os         1 QT0      -0.405700
     25 O19        -46.2080   -35.4950    -0.8350 o          1 QT0      -0.496000
     26 H131       -44.8380   -30.8970    -0.1250 hc         1 QT0       0.082700
     27 H122       -43.1880   -32.3710     1.0950 hc         1 QT0       0.060200
     28 H121       -43.9070   -31.8430     2.6100 hc         1 QT0       0.060200
     29 H112       -42.2940   -30.2180     0.6040 hc         1 QT0       0.058200
     30 H111       -42.1220   -30.2990     2.3550 hc         1 QT0       0.058200
     31 H102       -44.0390   -28.6730     0.6770 h1         1 QT0       0.064200
     32 H101       -43.2140   -28.2080     2.1610 h1         1 QT0       0.064200
     33 H201       -46.4990   -29.6600     0.9720 h1         1 QT0       0.072200
     34 H202       -46.5020   -30.7220     2.3840 h1         1 QT0       0.072200
     35 H031       -49.9710   -29.6310     6.8680 ha         1 QT0       0.139000
     36 H221       -42.8030   -28.8760     6.1540 h5         1 QT0       0.050100
     37 H251       -48.1150   -29.0840     2.2610 ha         1 QT0       0.121000
     38 H261       -50.5510   -29.1400     2.6470 ha         1 QT0       0.134000
     39 H051       -47.2700   -29.5470     7.5750 hn         1 QT0       0.370000
     40 H161       -48.0290   -34.6240     1.0520 hn         1 QT0       0.501000
     41 F01        -51.7000   -29.4330     4.9360 f          1 QT0      -0.182000
@<TRIPOS>BOND
     1     1    21 1   
     2     1    24 1   
     3     1    25 2   
     4     2     3 1   
     5     2    20 2   
     6     2    24 1   
     7     3     4 1   
     8     3     7 1   
     9     3    26 1   
    10     4     5 1   
    11     4    27 1   
    12     4    28 1   
    13     5     6 1   
    14     5    29 1   
    15     5    30 1   
    16     6    19 1   
    17     6    31 1   
    18     6    32 1   
    19     7    19 1   
    20     7    33 1   
    21     7    34 1   
    22     8     9 ar  
    23     8    17 ar  
    24     8    41 1   
    25     9    10 ar  
    26     9    35 1   
    27    10    15 ar  
    28    10    18 1   
    29    11    12 ar  
    30    11    18 1   
    31    11    23 ar  
    32    12    13 ar  
    33    12    15 1   
    34    13    19 1   
    35    13    22 ar  
    36    14    22 ar  
    37    14    23 ar  
    38    14    36 1   
    39    15    16 ar  
    40    16    17 ar  
    41    16    37 1   
    42    17    38 1   
    43    18    39 1   
    44    20    21 1   
    45    21    40 1   
@<TRIPOS>SUBSTRUCTURE
     1 QT0         1 TEMP              0 ****  ****    0 ROOT
