@<TRIPOS>MOLECULE
QT1
   55    59     1     0     0
SMALL
No Charge or Current Charge


@<TRIPOS>ATOM
      1 N1         -79.8150   -19.8330    88.9860 nc         1 QT1      -0.526100
      2 N3         -86.3860   -18.7540    89.0980 ns         1 QT1      -0.144000
      3 C4         -80.8500   -20.4410    85.5400 ca         1 QT1       0.469900
      4 C5         -83.2450   -21.1160    86.1220 ca         1 QT1       0.255000
      5 C6         -83.6230   -19.9850    86.8710 ca         1 QT1      -0.050000
      6 C7         -84.8280   -19.9540    87.6110 ca         1 QT1      -0.157600
      7 C8         -85.1800   -18.7100    88.4080 c          1 QT1       0.622700
      8 C10        -88.3000   -18.1940    90.4640 ca         1 QT1      -0.149000
      9 C13        -87.2400   -15.6760    91.1190 ca         1 QT1       0.011000
     10 C15        -86.5220   -16.5480    90.2760 ca         1 QT1      -0.095000
     11 C17        -85.3060   -22.2170    86.8120 ca         1 QT1      -0.117000
     12 C20        -78.9890   -19.5320    84.5230 cp         1 QT1       0.277500
     13 C21        -78.2470   -19.2110    83.2570 cp         1 QT1      -0.205500
     14 C22        -76.9910   -18.5470    83.2660 ca         1 QT1      -0.031000
     15 C24        -76.9630   -18.6660    80.8490 ca         1 QT1       0.350900
     16 N          -78.8230   -19.2880    88.1650 na         1 QT1      -0.020100
     17 C          -77.6090   -18.6320    88.6750 c3         1 QT1       0.081900
     18 O          -84.4300   -17.7410    88.4260 o          1 QT1      -0.566100
     19 C1         -80.7170   -20.3250    88.1240 cd         1 QT1       0.395800
     20 C11        -89.0190   -17.3270    91.3030 ca         1 QT1      -0.085000
     21 C12        -88.4910   -16.0690    91.6310 ca         1 QT1      -0.099000
     22 C14        -86.6970   -14.3870    91.4550 cg         1 QT1       0.321000
     23 C16        -85.6660   -21.0930    87.5730 ca         1 QT1      -0.078000
     24 C18        -84.1030   -22.2400    86.0800 ca         1 QT1      -0.042300
     25 C19        -83.7460   -23.4850    85.2700 c3         1 QT1      -0.054800
     26 C2         -79.1010   -19.4590    86.8190 ca         1 QT1       0.162500
     27 C23        -76.3510   -18.2760    82.0480 ca         1 QT1      -0.181000
     28 C25        -78.7750   -19.5600    81.9850 ca         1 QT1       0.379900
     29 C3         -80.3020   -20.0920    86.7660 ca         1 QT1      -0.384900
     30 C9         -87.0490   -17.8170    89.9410 ca         1 QT1      -0.022000
     31 N2         -82.0480   -21.1070    85.3910 nu         1 QT1      -0.953900
     32 N4         -86.2480   -13.3420    91.7220 n1         1 QT1      -0.446000
     33 N5         -80.1790   -20.1740    84.4110 nb         1 QT1      -0.314000
     34 N6         -78.1550   -19.2980    80.8090 nb         1 QT1      -0.678000
     35 N7         -78.4210   -19.1600    85.6980 nb         1 QT1      -0.235000
     36 H1         -86.8940   -19.6200    88.9820 hn         1 QT1       0.155000
     37 H2         -82.9730   -19.1140    86.8640 ha         1 QT1       0.152000
     38 H3         -88.7230   -19.1660    90.2180 ha         1 QT1       0.113000
     39 H4         -85.5590   -16.2210    89.8960 ha         1 QT1       0.158000
     40 H5         -85.9700   -23.0790    86.7940 ha         1 QT1       0.124000
     41 H6         -76.5160   -18.2440    84.1980 ha         1 QT1       0.138000
     42 H7         -76.4850   -18.4660    79.8910 h4         1 QT1       0.019100
     43 H8         -76.7260   -19.2040    88.3660 h1         1 QT1       0.059700
     44 H9         -77.5430   -17.6150    88.2690 h1         1 QT1       0.059700
     45 H10        -77.6420   -18.5810    89.7710 h1         1 QT1       0.059700
     46 H11        -81.5910   -20.8330    88.5110 h4         1 QT1       0.050800
     47 H12        -89.9860   -17.6300    91.7000 ha         1 QT1       0.121000
     48 H13        -89.0520   -15.4020    92.2820 ha         1 QT1       0.129000
     49 H14        -86.6050   -21.1270    88.1210 ha         1 QT1       0.118000
     50 H15        -82.7560   -23.8660    85.5450 hc         1 QT1       0.054033
     51 H16        -84.4630   -24.2980    85.4340 hc         1 QT1       0.054033
     52 H17        -83.7400   -23.2670    84.1950 hc         1 QT1       0.054033
     53 H18        -75.3900   -17.7690    82.0270 ha         1 QT1       0.125000
     54 H19        -79.7330   -20.0710    81.8960 h4         1 QT1       0.038100
     55 H20        -82.0770   -21.6570    84.5340 hn         1 QT1       0.521000
@<TRIPOS>BOND
     1     1    16 1   
     2     1    19 2   
     3     2     7 1   
     4     2    30 1   
     5     2    36 1   
     6     3    29 ar  
     7     3    31 1   
     8     3    33 ar  
     9     4     5 ar  
    10     4    24 ar  
    11     4    31 1   
    12     5     6 ar  
    13     5    37 1   
    14     6     7 1   
    15     6    23 ar  
    16     7    18 2   
    17     8    20 ar  
    18     8    30 ar  
    19     8    38 1   
    20     9    10 ar  
    21     9    21 ar  
    22     9    22 1   
    23    10    30 ar  
    24    10    39 1   
    25    11    23 ar  
    26    11    24 ar  
    27    11    40 1   
    28    12    13 1   
    29    12    33 ar  
    30    12    35 ar  
    31    13    14 ar  
    32    13    28 ar  
    33    14    27 ar  
    34    14    41 1   
    35    15    27 ar  
    36    15    34 ar  
    37    15    42 1   
    38    16    17 1   
    39    16    26 1   
    40    17    43 1   
    41    17    44 1   
    42    17    45 1   
    43    19    29 1   
    44    19    46 1   
    45    20    21 ar  
    46    20    47 1   
    47    21    48 1   
    48    22    32 3   
    49    23    49 1   
    50    24    25 1   
    51    25    50 1   
    52    25    51 1   
    53    25    52 1   
    54    26    29 ar  
    55    26    35 ar  
    56    27    53 1   
    57    28    34 ar  
    58    28    54 1   
    59    31    55 1   
@<TRIPOS>SUBSTRUCTURE
     1 QT1         1 TEMP              0 ****  ****    0 ROOT
