@<TRIPOS>MOLECULE
QT1
   55    59     1     0     0
SMALL
abcg2


@<TRIPOS>ATOM
      1 N1         -80.1580   -20.2670    88.7560 nc         1 QT1      -0.526100
      2 N3         -86.1690   -18.7380    89.2750 ns         1 QT1      -0.144000
      3 C4         -81.1530   -20.1310    85.2510 ca         1 QT1       0.469900
      4 C5         -83.4760   -20.6340    85.7990 ca         1 QT1       0.255000
      5 C6         -84.0200   -19.5520    86.4690 ca         1 QT1      -0.050000
      6 C7         -85.0440   -19.7330    87.3920 ca         1 QT1      -0.157600
      7 C8         -85.6010   -18.5200    88.0590 c          1 QT1       0.622700
      8 C10        -87.0220   -18.1930    91.4340 ca         1 QT1      -0.149000
      9 C13        -87.8810   -15.7230    90.5930 ca         1 QT1       0.011000
     10 C15        -87.2390   -16.5610    89.6820 ca         1 QT1      -0.095000
     11 C17        -85.0050   -22.0930    86.9070 ca         1 QT1      -0.117000
     12 C20        -79.0290   -19.5400    84.5690 cp         1 QT1       0.277500
     13 C21        -78.1560   -19.2050    83.4240 cp         1 QT1      -0.205500
     14 C22        -76.8230   -18.8480    83.6090 ca         1 QT1      -0.031000
     15 C24        -76.6330   -18.6010    81.2470 ca         1 QT1       0.350900
     16 N          -79.0680   -19.9140    88.0560 na         1 QT1      -0.020100
     17 C          -77.8130   -19.6770    88.7230 c3         1 QT1       0.081900
     18 O          -85.5300   -17.4230    87.5350 o          1 QT1      -0.566100
     19 C1         -81.1400   -20.4120    87.9030 cd         1 QT1       0.395800
     20 C11        -87.6610   -17.3470    92.3230 ca         1 QT1      -0.085000
     21 C12        -88.0970   -16.0970    91.9150 ca         1 QT1      -0.099000
     22 C14        -88.3300   -14.4430    90.1430 cg         1 QT1       0.321000
     23 C16        -85.5370   -21.0180    87.6020 ca         1 QT1      -0.078000
     24 C18        -83.9620   -21.9300    86.0010 ca         1 QT1      -0.042300
     25 C19        -83.3760   -23.0940    85.2660 c3         1 QT1      -0.054800
     26 C2         -79.3360   -19.8290    86.7420 ca         1 QT1       0.162500
     27 C23        -76.0490   -18.5410    82.5040 ca         1 QT1      -0.181000
     28 C25        -78.6390   -19.2310    82.1160 ca         1 QT1       0.379900
     29 C3         -80.6910   -20.1450    86.5860 ca         1 QT1      -0.384900
     30 C9         -86.8000   -17.8130    90.1070 ca         1 QT1      -0.022000
     31 N2         -82.4130   -20.4180    84.8910 nu         1 QT1      -0.953900
     32 N4         -88.6920   -13.4100    89.7830 n1         1 QT1      -0.446000
     33 N5         -80.2990   -19.8330    84.2760 nb         1 QT1      -0.314000
     34 N6         -77.9030   -18.9390    81.0520 nb         1 QT1      -0.678000
     35 N7         -78.4800   -19.5170    85.7690 nb         1 QT1      -0.235000
     36 H1         -86.0340   -19.6500    89.6840 hn         1 QT1       0.155000
     37 H2         -83.6300   -18.5600    86.2740 ha         1 QT1       0.152000
     38 H3         -86.6870   -19.1660    91.7740 ha         1 QT1       0.113000
     39 H4         -87.1000   -16.2300    88.6660 ha         1 QT1       0.158000
     40 H5         -85.4100   -23.0830    87.0760 ha         1 QT1       0.124000
     41 H6         -76.4030   -18.8110    84.6050 ha         1 QT1       0.138000
     42 H7         -76.0530   -18.3650    80.3620 h4         1 QT1       0.019100
     43 H8         -77.4960   -20.5680    89.2620 h1         1 QT1       0.059700
     44 H9         -77.0640   -19.4300    87.9770 h1         1 QT1       0.059700
     45 H10        -77.9050   -18.8470    89.4220 h1         1 QT1       0.059700
     46 H11        -82.1190   -20.7010    88.2500 h4         1 QT1       0.050800
     47 H12        -87.8170   -17.6670    93.3440 ha         1 QT1       0.121000
     48 H13        -88.5940   -15.4280    92.6030 ha         1 QT1       0.129000
     49 H14        -86.3590   -21.2010    88.2820 ha         1 QT1       0.118000
     50 H15        -82.3020   -23.1730    85.4420 hc         1 QT1       0.054033
     51 H16        -83.8400   -24.0280    85.5790 hc         1 QT1       0.054033
     52 H17        -83.5160   -22.9950    84.1890 hc         1 QT1       0.054033
     53 H18        -75.0100   -18.2610    82.6100 ha         1 QT1       0.125000
     54 H19        -79.6710   -19.5030    81.9300 h4         1 QT1       0.038100
     55 H20        -82.6020   -20.4470    83.8990 hn         1 QT1       0.521000
@<TRIPOS>BOND
     1     1    16 1   
     2     1    19 2   
     3     2     7 1   
     4     2    30 1   
     5     2    36 1   
     6     3    29 ar  
     7     3    31 1   
     8     3    33 ar  
     9     4     5 ar  
    10     4    24 ar  
    11     4    31 1   
    12     5     6 ar  
    13     5    37 1   
    14     6     7 1   
    15     6    23 ar  
    16     7    18 2   
    17     8    20 ar  
    18     8    30 ar  
    19     8    38 1   
    20     9    10 ar  
    21     9    21 ar  
    22     9    22 1   
    23    10    30 ar  
    24    10    39 1   
    25    11    23 ar  
    26    11    24 ar  
    27    11    40 1   
    28    12    13 1   
    29    12    33 ar  
    30    12    35 ar  
    31    13    14 ar  
    32    13    28 ar  
    33    14    27 ar  
    34    14    41 1   
    35    15    27 ar  
    36    15    34 ar  
    37    15    42 1   
    38    16    17 1   
    39    16    26 1   
    40    17    43 1   
    41    17    44 1   
    42    17    45 1   
    43    19    29 1   
    44    19    46 1   
    45    20    21 ar  
    46    20    47 1   
    47    21    48 1   
    48    22    32 3   
    49    23    49 1   
    50    24    25 1   
    51    25    50 1   
    52    25    51 1   
    53    25    52 1   
    54    26    29 ar  
    55    26    35 ar  
    56    27    53 1   
    57    28    34 ar  
    58    28    54 1   
    59    31    55 1   
@<TRIPOS>SUBSTRUCTURE
     1 QT1         1 TEMP              0 ****  ****    0 ROOT
