@<TRIPOS>MOLECULE
QT2
   33    33     1     0     0
SMALL
No Charge or Current Charge


@<TRIPOS>ATOM
      1 C02        -26.7910     2.9020   -15.6690 c3         1 QT2       0.061600
      2 C03        -28.1420     2.1070   -15.7360 c5         1 QT2       0.328200
      3 C04        -28.3780     1.4270   -14.3060 c          1 QT2       0.598100
      4 C06        -29.9360    -0.0100   -13.1010 c3         1 QT2       0.157600
      5 C07        -30.6090     1.0280   -12.1790 c3         1 QT2      -0.118100
      6 C10        -29.3820     1.4350   -18.0830 c5         1 QT2       0.173000
      7 C11        -29.0000     1.2140   -19.5680 c3         1 QT2      -0.073100
      8 C12        -30.6750     0.6360   -17.7660 c3         1 QT2      -0.073100
      9 C13        -29.4180     2.9420   -17.6790 c5         1 QT2       0.047500
     10 C14        -30.6890     3.6420   -18.3240 c          1 QT2       0.733000
     11 N17        -29.3060     2.9610   -16.1690 n7         1 QT2      -0.857400
     12 O05        -29.5150     0.6430   -14.3130 os         1 QT2      -0.382100
     13 O08        -27.6600     1.5540   -13.3160 o          1 QT2      -0.528000
     14 O15        -30.5660     4.1840   -19.4160 o          1 QT2      -0.713000
     15 O16        -31.7290     3.7430   -17.6830 o          1 QT2      -0.713000
     16 S01        -26.0760     3.7340   -17.1780 sh         1 QT2      -0.405800
     17 S09        -28.0120     0.7480   -17.0330 ss         1 QT2      -0.518000
     18 H2         -26.0200     2.2060   -15.3130 h1         1 QT2       0.068700
     19 H1         -26.8950     3.6750   -14.8970 h1         1 QT2       0.068700
     20 H4         -30.6700    -0.7910   -13.3380 h1         1 QT2       0.054700
     21 H3         -29.0920    -0.4920   -12.5880 h1         1 QT2       0.054700
     22 H6         -31.0130     0.5320   -11.2880 hc         1 QT2       0.040033
     23 H7         -29.8960     1.7910   -11.8460 hc         1 QT2       0.040033
     24 H5         -31.4370     1.5240   -12.6980 hc         1 QT2       0.040033
     25 H10        -28.0680     1.7340   -19.8180 hc         1 QT2       0.042367
     26 H8         -28.8540     0.1490   -19.7860 hc         1 QT2       0.042367
     27 H9         -29.7810     1.5850   -20.2420 hc         1 QT2       0.042367
     28 H13        -30.9810     0.7640   -16.7220 hc         1 QT2       0.042367
     29 H12        -31.5110     0.9560   -18.3990 hc         1 QT2       0.042367
     30 H11        -30.5270    -0.4370   -17.9360 hc         1 QT2       0.042367
     31 H14        -28.5520     3.4530   -18.1140 h1         1 QT2       0.042700
     32 H15        -29.2040     3.9190   -15.8130 hn         1 QT2       0.446000
     33 H18        -24.9660     4.2180   -16.5710 hs         1 QT2       0.171800
@<TRIPOS>BOND
     1     1     2 1   
     2     1    16 1   
     3     1    18 1   
     4     1    19 1   
     5     2     3 1   
     6     2    11 1   
     7     2    17 1   
     8     3    12 1   
     9     3    13 2   
    10     4     5 1   
    11     4    12 1   
    12     4    20 1   
    13     4    21 1   
    14     5    22 1   
    15     5    23 1   
    16     5    24 1   
    17     6     7 1   
    18     6     8 1   
    19     6     9 1   
    20     6    17 1   
    21     7    25 1   
    22     7    26 1   
    23     7    27 1   
    24     8    28 1   
    25     8    29 1   
    26     8    30 1   
    27     9    10 1   
    28     9    11 1   
    29     9    31 1   
    30    10    14 1   
    31    10    15 1   
    32    11    32 1   
    33    16    33 1   
@<TRIPOS>SUBSTRUCTURE
     1 QT2         1 TEMP              0 ****  ****    0 ROOT
