@<TRIPOS>MOLECULE
QT2
   33    33     1     0     0
SMALL
bcc


@<TRIPOS>ATOM
      1 C02        -26.9040     2.8140   -15.4500 c3         1 QT2       0.013700
      2 C03        -28.1840     2.0510   -15.8160 c5         1 QT2       0.280300
      3 C04        -28.5660     1.2070   -14.5880 c          1 QT2       0.647100
      4 C06        -30.3190     0.4440   -13.1970 c3         1 QT2       0.134400
      5 C07        -30.1190     1.1490   -11.8730 c3         1 QT2      -0.118100
      6 C10        -29.2560     1.3870   -18.1940 c5         1 QT2       0.125100
      7 C11        -28.8320     1.2380   -19.6480 c3         1 QT2      -0.073100
      8 C12        -30.4770     0.5270   -17.8950 c3         1 QT2      -0.073100
      9 C13        -29.4250     2.8510   -17.7550 c5         1 QT2       0.047500
     10 C14        -30.7780     3.4690   -18.1990 c          1 QT2       0.943600
     11 N17        -29.2620     2.8540   -16.3140 n7         1 QT2      -0.802200
     12 O05        -29.8510     1.2340   -14.3030 os         1 QT2      -0.358900
     13 O08        -27.7480     0.5680   -13.9710 o          1 QT2      -0.577000
     14 O15        -30.9370     3.5460   -19.4340 o          1 QT2      -0.818300
     15 O16        -31.5630     3.8510   -17.3170 o          1 QT2      -0.818300
     16 S01        -26.1860     3.6690   -16.8910 sh         1 QT2      -0.357900
     17 S09        -27.8330     0.8410   -17.1520 ss         1 QT2      -0.422200
     18 H2         -26.1600     2.1400   -15.0300 h1         1 QT2       0.068700
     19 H1         -27.1390     3.5620   -14.6890 h1         1 QT2       0.068700
     20 H4         -31.3790     0.2990   -13.3970 h1         1 QT2       0.054700
     21 H3         -29.8380    -0.5340   -13.2010 h1         1 QT2       0.054700
     22 H6         -30.5710     0.5520   -11.0800 hc         1 QT2       0.040033
     23 H7         -29.0650     1.2790   -11.6330 hc         1 QT2       0.040033
     24 H5         -30.6010     2.1270   -11.8690 hc         1 QT2       0.040033
     25 H10        -27.9530     1.8430   -19.8710 hc         1 QT2       0.042367
     26 H8         -28.5990     0.1980   -19.8830 hc         1 QT2       0.042367
     27 H9         -29.6410     1.5600   -20.3000 hc         1 QT2       0.042367
     28 H13        -30.8010     0.6270   -16.8610 hc         1 QT2       0.042367
     29 H12        -31.3070     0.8140   -18.5440 hc         1 QT2       0.042367
     30 H11        -30.2630    -0.5260   -18.0820 hc         1 QT2       0.042367
     31 H14        -28.6360     3.4280   -18.2570 h1         1 QT2       0.042700
     32 H15        -29.2480     3.7890   -15.9300 hn         1 QT2       0.390800
     33 H18        -25.9100     4.8190   -16.2660 hs         1 QT2       0.171800
@<TRIPOS>BOND
     1     1     2 1   
     2     1    16 1   
     3     1    18 1   
     4     1    19 1   
     5     2     3 1   
     6     2    11 1   
     7     2    17 1   
     8     3    12 1   
     9     3    13 2   
    10     4     5 1   
    11     4    12 1   
    12     4    20 1   
    13     4    21 1   
    14     5    22 1   
    15     5    23 1   
    16     5    24 1   
    17     6     7 1   
    18     6     8 1   
    19     6     9 1   
    20     6    17 1   
    21     7    25 1   
    22     7    26 1   
    23     7    27 1   
    24     8    28 1   
    25     8    29 1   
    26     8    30 1   
    27     9    10 1   
    28     9    11 1   
    29     9    31 1   
    30    10    14 1   
    31    10    15 1   
    32    11    32 1   
    33    16    33 1   
@<TRIPOS>SUBSTRUCTURE
     1 QT2         1 TEMP              0 ****  ****    0 ROOT
