@<TRIPOS>MOLECULE
QT3
   43    46     1     0     0
SMALL
No Charge or Current Charge


@<TRIPOS>ATOM
      1 N1         -20.1100     5.0940    26.6910 ns         1 QT3      -0.169000
      2 C4         -22.9940     5.0040    31.9090 ca         1 QT3      -0.103000
      3 C5         -22.4970     3.7300    32.2320 ca         1 QT3      -0.092000
      4 C6         -21.8930     2.9430    31.2400 ca         1 QT3       0.124000
      5 C7         -21.7820     3.4260    29.9270 ca         1 QT3      -0.099000
      6 C8         -22.2750     4.7050    29.5950 ca         1 QT3      -0.067300
      7 C10        -20.6090     5.5570    27.9010 c          1 QT3       0.561100
      8 C13        -16.2610     5.2090    25.0580 ca         1 QT3       0.360900
      9 C15        -16.1360     7.6450    25.2020 ca         1 QT3      -0.084000
     10 C17        -18.0360     8.9060    26.0430 ca         1 QT3      -0.093000
     11 O          -19.9090     6.1590    28.7140 o          1 QT3      -0.570100
     12 C9         -22.1240     5.2320    28.1570 c6         1 QT3       0.173800
     13 C3         -22.8840     5.4980    30.5950 ca         1 QT3      -0.041300
     14 C2         -23.4660     6.8750    30.2570 c6         1 QT3      -0.030100
     15 C1         -23.0510     7.4100    28.8660 c6         1 QT3       0.173800
     16 N          -23.1040     6.3340    27.8440 n3         1 QT3      -0.728600
     17 C          -23.0130     6.8420    26.4550 c3         1 QT3       0.159100
     18 C11        -18.8080     5.2210    26.1330 ca         1 QT3      -0.081000
     19 C19        -18.1490     6.4640    25.9480 ca         1 QT3       0.001000
     20 C18        -18.7450     7.7090    26.2500 ca         1 QT3      -0.088000
     21 C16        -16.7320     8.8740    25.5250 ca         1 QT3      -0.107000
     22 C14        -16.8440     6.4440    25.4050 ca         1 QT3      -0.092000
     23 N2         -16.8960     4.0240    25.2060 nb         1 QT3      -0.653000
     24 C12        -18.1430     4.0440    25.7280 ca         1 QT3       0.313900
     25 H1         -20.7630     4.5620    26.1280 hn         1 QT3       0.155000
     26 H2         -23.4700     5.6070    32.6800 ha         1 QT3       0.119000
     27 H3         -22.5830     3.3520    33.2480 ha         1 QT3       0.132000
     28 H4         -21.3100     2.8050    29.1690 ha         1 QT3       0.121000
     29 H6         -15.1300     7.6270    24.7880 ha         1 QT3       0.118000
     30 H7         -18.5020     9.8600    26.2820 ha         1 QT3       0.115000
     31 H8         -22.3490     4.3840    27.4930 h1         1 QT3       0.067700
     32 H9         -23.1810     7.6060    31.0260 hc         1 QT3       0.058700
     33 H10        -24.5610     6.8050    30.2920 hc         1 QT3       0.058700
     34 H11        -22.0370     7.8310    28.9290 h1         1 QT3       0.052200
     35 H12        -23.7230     8.2390    28.5970 h1         1 QT3       0.052200
     36 H14        -23.8280     7.5490    26.2490 h1         1 QT3       0.036367
     37 H15        -22.0620     7.3610    26.2810 h1         1 QT3       0.036367
     38 H16        -23.0940     6.0170    25.7340 h1         1 QT3       0.036367
     39 H17        -19.7560     7.7700    26.6370 ha         1 QT3       0.121000
     40 H18        -16.1870     9.8020    25.3650 ha         1 QT3       0.117000
     41 H19        -18.6250     3.0730    25.8430 h4         1 QT3       0.022100
     42 Cl         -21.2720     1.3480    31.6430 cl         1 QT3      -0.212000
     43 H5         -15.2580     5.1650    24.6360 h4         1 QT3       0.022100
@<TRIPOS>BOND
     1     1     7 1   
     2     1    18 1   
     3     1    25 1   
     4     2     3 ar  
     5     2    13 ar  
     6     2    26 1   
     7     3     4 ar  
     8     3    27 1   
     9     4     5 ar  
    10     4    42 1   
    11     5     6 ar  
    12     5    28 1   
    13     6    12 1   
    14     6    13 ar  
    15     7    11 2   
    16     7    12 1   
    17     8    22 ar  
    18     8    23 ar  
    19     8    43 1   
    20     9    21 ar  
    21     9    22 ar  
    22     9    29 1   
    23    10    20 ar  
    24    10    21 ar  
    25    10    30 1   
    26    12    16 1   
    27    12    31 1   
    28    13    14 1   
    29    14    15 1   
    30    14    32 1   
    31    14    33 1   
    32    15    16 1   
    33    15    34 1   
    34    15    35 1   
    35    16    17 1   
    36    17    36 1   
    37    17    37 1   
    38    17    38 1   
    39    18    19 ar  
    40    18    24 ar  
    41    19    20 ar  
    42    19    22 ar  
    43    20    39 1   
    44    21    40 1   
    45    23    24 ar  
    46    24    41 1   
@<TRIPOS>SUBSTRUCTURE
     1 QT3         1 TEMP              0 ****  ****    0 ROOT
