@<TRIPOS>MOLECULE
QT3
   43    46     1     0     0
SMALL
abcg2


@<TRIPOS>ATOM
      1 N1         -20.1450     5.1790    26.8190 ns         1 QT3      -0.169000
      2 C4         -22.9150     4.5900    31.7140 ca         1 QT3      -0.103000
      3 C5         -22.3730     3.3160    31.7910 ca         1 QT3      -0.092000
      4 C6         -21.8050     2.7670    30.6490 ca         1 QT3       0.124000
      5 C7         -21.7660     3.4690    29.4580 ca         1 QT3      -0.099000
      6 C8         -22.3090     4.7540    29.3950 ca         1 QT3      -0.067300
      7 C10        -20.7170     5.8530    27.8490 c          1 QT3       0.561100
      8 C13        -16.0770     5.1840    25.9960 ca         1 QT3       0.360900
      9 C15        -16.1590     7.4740    25.0610 ca         1 QT3      -0.084000
     10 C17        -18.2850     8.6100    24.9640 ca         1 QT3      -0.093000
     11 O          -20.1070     6.6630    28.5360 o          1 QT3      -0.570100
     12 C9         -22.2100     5.5160    28.0900 c6         1 QT3       0.173800
     13 C3         -22.8960     5.3240    30.5250 ca         1 QT3      -0.041300
     14 C2         -23.5340     6.6860    30.4580 c6         1 QT3      -0.030100
     15 C1         -23.0440     7.4990    29.2710 c6         1 QT3       0.173800
     16 N          -23.0810     6.6810    28.0600 n3         1 QT3      -0.728600
     17 C          -22.9460     7.4600    26.8400 c3         1 QT3       0.159100
     18 C11        -18.7570     5.2420    26.5180 ca         1 QT3      -0.081000
     19 C19        -18.1900     6.3940    25.9130 ca         1 QT3       0.001000
     20 C18        -18.9240     7.5440    25.5460 ca         1 QT3      -0.088000
     21 C16        -16.8930     8.5820    24.7240 ca         1 QT3      -0.107000
     22 C14        -16.7910     6.3570    25.6560 ca         1 QT3      -0.092000
     23 N2         -16.6280     4.1220    26.5390 nb         1 QT3      -0.653000
     24 C12        -17.9580     4.1630    26.8000 ca         1 QT3       0.313900
     25 H1         -20.6910     4.4700    26.3520 hn         1 QT3       0.155000
     26 H2         -23.3640     5.0270    32.5980 ha         1 QT3       0.119000
     27 H3         -22.3930     2.7590    32.7180 ha         1 QT3       0.132000
     28 H4         -21.3140     3.0240    28.5810 ha         1 QT3       0.121000
     29 H6         -15.0920     7.4340    24.8750 ha         1 QT3       0.118000
     30 H7         -18.8540     9.4880    24.6830 ha         1 QT3       0.115000
     31 H8         -22.5320     4.8560    27.2800 h1         1 QT3       0.067700
     32 H9         -23.3500     7.2290    31.3880 hc         1 QT3       0.058700
     33 H10        -24.6190     6.5580    30.3780 hc         1 QT3       0.058700
     34 H11        -22.0390     7.8960    29.4630 h1         1 QT3       0.052200
     35 H12        -23.7070     8.3500    29.1100 h1         1 QT3       0.052200
     36 H14        -23.7580     8.1860    26.7860 h1         1 QT3       0.036367
     37 H15        -21.9960     8.0130    26.7800 h1         1 QT3       0.036367
     38 H16        -23.0120     6.8010    25.9730 h1         1 QT3       0.036367
     39 H17        -19.9890     7.5750    25.7220 ha         1 QT3       0.121000
     40 H18        -16.4120     9.4370    24.2680 ha         1 QT3       0.117000
     41 H19        -18.3910     3.2820    27.2590 h4         1 QT3       0.022100
     42 CL         -21.1220     1.1530    30.7160 cl         1 QT3      -0.212000
     43 H5         -15.0090     5.1460    25.8010 h4         1 QT3       0.022100
@<TRIPOS>BOND
     1     1     7 1   
     2     1    18 1   
     3     1    25 1   
     4     2     3 ar  
     5     2    13 ar  
     6     2    26 1   
     7     3     4 ar  
     8     3    27 1   
     9     4     5 ar  
    10     4    42 1   
    11     5     6 ar  
    12     5    28 1   
    13     6    12 1   
    14     6    13 ar  
    15     7    11 2   
    16     7    12 1   
    17     8    22 ar  
    18     8    23 ar  
    19     8    43 1   
    20     9    21 ar  
    21     9    22 ar  
    22     9    29 1   
    23    10    20 ar  
    24    10    21 ar  
    25    10    30 1   
    26    12    16 1   
    27    12    31 1   
    28    13    14 1   
    29    14    15 1   
    30    14    32 1   
    31    14    33 1   
    32    15    16 1   
    33    15    34 1   
    34    15    35 1   
    35    16    17 1   
    36    17    36 1   
    37    17    37 1   
    38    17    38 1   
    39    18    19 ar  
    40    18    24 ar  
    41    19    20 ar  
    42    19    22 ar  
    43    20    39 1   
    44    21    40 1   
    45    23    24 ar  
    46    24    41 1   
@<TRIPOS>SUBSTRUCTURE
     1 QT3         1 TEMP              0 ****  ****    0 ROOT
