@<TRIPOS>MOLECULE
QT5
   27    28     1     0     0
SMALL
bcc


@<TRIPOS>ATOM
      1 C1          24.4310    33.0320    35.2990 c3         1 QT5      -0.120400
      2 C2          25.6990    33.6410    34.8170 cc         1 QT5       0.418800
      3 N1          26.6660    34.0820    35.5790 nd         1 QT5      -0.676000
      4 C3          27.6430    34.5350    34.7360 cd         1 QT5       0.298200
      5 C4          27.2650    34.3590    33.4410 cc         1 QT5      -0.254600
      6 N2          26.0150    33.7920    33.4990 na         1 QT5      -0.131000
      7 C5          25.2390    33.4060    32.3800 ca         1 QT5      -0.007200
      8 C6          23.9580    33.9080    32.2110 ca         1 QT5      -0.123000
      9 C7          23.2160    33.5070    31.1070 ca         1 QT5      -0.125000
     10 C8          23.7540    32.6320    30.1780 ca         1 QT5      -0.097000
     11 C9          25.0500    32.1410    30.3330 ca         1 QT5      -0.076300
     12 C10         25.7810    32.5270    31.4480 ca         1 QT5      -0.128000
     13 C11         25.6440    31.2030    29.3130 c3         1 QT5       0.195100
     14 N3          24.7730    30.0610    29.0790 n8         1 QT5      -0.887800
     15 H1          24.5370    32.7810    36.3520 hc         1 QT5       0.054700
     16 H2          23.5850    33.7140    35.2030 hc         1 QT5       0.054700
     17 H3          24.1810    32.1220    34.7530 hc         1 QT5       0.054700
     18 H4          28.5620    34.9630    35.1040 h4         1 QT5       0.037100
     19 H5          27.7420    34.5930    32.5040 h4         1 QT5       0.176000
     20 H6          23.5450    34.6120    32.9220 ha         1 QT5       0.146000
     21 H7          22.2150    33.8940    30.9690 ha         1 QT5       0.138000
     22 H8          23.1670    32.3260    29.3220 ha         1 QT5       0.150000
     23 H9          26.7800    32.1350    31.6040 ha         1 QT5       0.142000
     24 H10         26.6600    30.9330    29.6290 h1         1 QT5       0.037700
     25 H11         25.7530    31.7390    28.3670 h1         1 QT5       0.037700
     26 H12         25.1430    29.5100    28.3150 hn         1 QT5       0.343300
     27 H13         24.7840    29.4580    29.8910 hn         1 QT5       0.343300
@<TRIPOS>BOND
     1     1     2 1   
     2     1    15 1   
     3     1    16 1   
     4     1    17 1   
     5     2     3 2   
     6     2     6 1   
     7     3     4 1   
     8     4     5 2   
     9     4    18 1   
    10     5     6 1   
    11     5    19 1   
    12     6     7 1   
    13     7     8 ar  
    14     7    12 ar  
    15     8     9 ar  
    16     8    20 1   
    17     9    10 ar  
    18     9    21 1   
    19    10    11 ar  
    20    10    22 1   
    21    11    12 ar  
    22    11    13 1   
    23    12    23 1   
    24    13    14 1   
    25    13    24 1   
    26    13    25 1   
    27    14    26 1   
    28    14    27 1   
@<TRIPOS>SUBSTRUCTURE
     1 QT5         1 TEMP              0 ****  ****    0 ROOT
