@<TRIPOS>MOLECULE
QT5
   27    28     1     0     0
SMALL
No Charge or Current Charge


@<TRIPOS>ATOM
      1 C1          24.3480    33.0290    35.3010 c3         1 QT5      -0.120400
      2 C2          25.6510    33.5900    34.8000 cc         1 QT5       0.418800
      3 N1          26.6560    33.9730    35.5770 nd         1 QT5      -0.676000
      4 C3          27.6730    34.3730    34.7190 cd         1 QT5       0.232900
      5 C4          27.2980    34.2320    33.4050 cc         1 QT5      -0.222000
      6 N2          26.0140    33.7580    33.4810 na         1 QT5      -0.080300
      7 C5          25.2340    33.4270    32.3720 ca         1 QT5      -0.007200
      8 C6          23.9430    33.9690    32.2140 ca         1 QT5      -0.105000
      9 C7          23.1680    33.6340    31.0920 ca         1 QT5      -0.107000
     10 C8          23.6790    32.7590    30.1180 ca         1 QT5      -0.079000
     11 C9          24.9710    32.2170    30.2590 ca         1 QT5      -0.076300
     12 C10         25.7440    32.5570    31.3870 ca         1 QT5      -0.110000
     13 C11         25.5290    31.2770    29.1970 c3         1 QT5       0.195100
     14 N3          25.0740    29.8900    29.4080 n8         1 QT5      -0.998200
     15 H1          24.4540    32.6430    36.3210 hc         1 QT5       0.054700
     16 H2          23.5710    33.8010    35.3100 hc         1 QT5       0.054700
     17 H3          24.0060    32.2040    34.6650 hc         1 QT5       0.054700
     18 H4          28.6220    34.7330    35.0980 h4         1 QT5       0.037100
     19 H5          27.8210    34.4350    32.4790 h4         1 QT5       0.158000
     20 H6          23.5420    34.6580    32.9550 ha         1 QT5       0.128000
     21 H7          22.1710    34.0540    30.9750 ha         1 QT5       0.120000
     22 H8          23.0720    32.5020    29.2520 ha         1 QT5       0.132000
     23 H9          26.7420    32.1390    31.5020 ha         1 QT5       0.124000
     24 H10         26.6270    31.2990    29.2210 h1         1 QT5       0.037700
     25 H11         25.2050    31.6100    28.2010 h1         1 QT5       0.037700
     26 H12         25.5440    29.2790    28.7290 hn         1 QT5       0.398500
     27 H13         25.4290    29.5640    30.3150 hn         1 QT5       0.398500
@<TRIPOS>BOND
     1     1     2 1   
     2     1    15 1   
     3     1    16 1   
     4     1    17 1   
     5     2     3 2   
     6     2     6 1   
     7     3     4 1   
     8     4     5 2   
     9     4    18 1   
    10     5     6 1   
    11     5    19 1   
    12     6     7 1   
    13     7     8 ar  
    14     7    12 ar  
    15     8     9 ar  
    16     8    20 1   
    17     9    10 ar  
    18     9    21 1   
    19    10    11 ar  
    20    10    22 1   
    21    11    12 ar  
    22    11    13 1   
    23    12    23 1   
    24    13    14 1   
    25    13    24 1   
    26    13    25 1   
    27    14    26 1   
    28    14    27 1   
@<TRIPOS>SUBSTRUCTURE
     1 QT5         1 TEMP              0 ****  ****    0 ROOT
