@<TRIPOS>MOLECULE
QT6
   43    46     1     0     0
SMALL
abcg2


@<TRIPOS>ATOM
      1 C16        -50.6810   -29.4080     4.5630 ca         1 QT6      -0.178000
      2 C17        -49.4560   -28.9130     4.1330 ca         1 QT6      -0.040000
      3 C15        -50.7320   -30.2010     5.7040 ca         1 QT6       0.176000
      4 C14        -49.6270   -30.5110     6.4720 ca         1 QT6      -0.181000
      5 C13        -48.4140   -29.9980     6.0290 ca         1 QT6       0.001800
      6 C12        -48.2920   -29.2260     4.8390 cp         1 QT6      -0.047000
      7 C11        -46.8920   -28.8590     4.7420 cp         1 QT6      -0.232000
      8 C10        -46.0480   -28.1300     3.8740 ca         1 QT6       0.426900
      9 C20        -46.2700   -29.3560     5.9110 ca         1 QT6       0.190500
     10 C02        -43.2400   -27.4940    -2.1900 c          1 QT6       0.703000
     11 C03        -42.7200   -27.2050    -0.7680 c3         1 QT6      -0.200400
     12 C04        -43.7190   -26.5480     0.1910 c3         1 QT6      -0.045400
     13 C05        -44.7420   -27.5120     0.7970 c6         1 QT6      -0.072700
     14 C06        -45.6830   -28.1640    -0.2430 c6         1 QT6      -0.081400
     15 C07        -47.0970   -28.3740     0.3150 c6         1 QT6      -0.088400
     16 C08        -47.0870   -28.7910     1.7770 c6         1 QT6       0.211800
     17 C22        -44.3740   -28.2920     5.4630 ca         1 QT6       0.179900
     18 C24        -45.5840   -26.8120     1.8650 c6         1 QT6       0.202800
     19 F18        -51.9420   -30.6770     6.1020 f          1 QT6      -0.193000
     20 N09        -46.4190   -27.7630     2.6100 nh         1 QT6      -0.759300
     21 N19        -47.1770   -30.0790     6.6350 na         1 QT6      -0.338300
     22 N21        -45.0150   -29.1140     6.2940 nb         1 QT6      -0.254000
     23 N23        -44.8090   -27.8040     4.3060 nb         1 QT6      -0.270000
     24 O01        -43.8190   -26.5500    -2.7910 o          1 QT6      -0.745000
     25 O25        -43.0170   -28.6390    -2.6670 o          1 QT6      -0.745000
     26 H161       -51.5950   -29.1780     4.0320 ha         1 QT6       0.129000
     27 H171       -49.4300   -28.2600     3.2730 ha         1 QT6       0.133000
     28 H141       -49.7150   -31.1010     7.3740 ha         1 QT6       0.130000
     29 H032       -41.8650   -26.5320    -0.8920 hc         1 QT6       0.022200
     30 H031       -42.3360   -28.1300    -0.3310 hc         1 QT6       0.022200
     31 H042       -43.1640   -26.0850     1.0120 hc         1 QT6       0.027200
     32 H041       -44.2400   -25.7420    -0.3340 hc         1 QT6       0.027200
     33 H051       -44.1860   -28.3040     1.3100 hc         1 QT6       0.044700
     34 H062       -45.7420   -27.5330    -1.1310 hc         1 QT6       0.078700
     35 H061       -45.2660   -29.1200    -0.5650 hc         1 QT6       0.078700
     36 H071       -47.6850   -27.4590     0.2120 hc         1 QT6       0.041700
     37 H072       -47.6220   -29.1450    -0.2530 hc         1 QT6       0.041700
     38 H081       -48.1040   -28.9620     2.1150 h1         1 QT6       0.038700
     39 H082       -46.5470   -29.7380     1.8880 h1         1 QT6       0.038700
     40 H221       -43.3690   -28.0020     5.7550 h5         1 QT6       0.044100
     41 H242       -46.2380   -26.0710     1.3950 h1         1 QT6       0.059200
     42 H241       -44.9520   -26.2920     2.5760 h1         1 QT6       0.059200
     43 H191       -46.9900   -30.4940     7.5350 hn         1 QT6       0.361000
@<TRIPOS>BOND
     1     1     2 ar  
     2     1     3 ar  
     3     1    26 1   
     4     2     6 ar  
     5     2    27 1   
     6     3     4 ar  
     7     3    19 1   
     8     4     5 ar  
     9     4    28 1   
    10     5     6 ar  
    11     5    21 1   
    12     6     7 1   
    13     7     8 ar  
    14     7     9 ar  
    15     8    20 1   
    16     8    23 ar  
    17     9    21 1   
    18     9    22 ar  
    19    10    11 1   
    20    10    24 1   
    21    10    25 1   
    22    11    12 1   
    23    11    29 1   
    24    11    30 1   
    25    12    13 1   
    26    12    31 1   
    27    12    32 1   
    28    13    14 1   
    29    13    18 1   
    30    13    33 1   
    31    14    15 1   
    32    14    34 1   
    33    14    35 1   
    34    15    16 1   
    35    15    36 1   
    36    15    37 1   
    37    16    20 1   
    38    16    38 1   
    39    16    39 1   
    40    17    22 ar  
    41    17    23 ar  
    42    17    40 1   
    43    18    20 1   
    44    18    41 1   
    45    18    42 1   
    46    21    43 1   
@<TRIPOS>SUBSTRUCTURE
     1 QT6         1 TEMP              0 ****  ****    0 ROOT
