@<TRIPOS>MOLECULE
QT6
   43    46     1     0     0
SMALL
No Charge or Current Charge


@<TRIPOS>ATOM
      1 C16        -50.5190   -29.0680     4.1580 ca         1 QT6      -0.178000
      2 C17        -49.1410   -28.8840     3.9010 ca         1 QT6      -0.040000
      3 C15        -50.9620   -29.5090     5.4280 ca         1 QT6       0.176000
      4 C14        -50.0450   -29.7660     6.4660 ca         1 QT6      -0.181000
      5 C13        -48.6910   -29.5790     6.1780 ca         1 QT6       0.001800
      6 C12        -48.2250   -29.1650     4.9360 cp         1 QT6      -0.047000
      7 C11        -46.7690   -29.0660     5.0230 cp         1 QT6      -0.232000
      8 C10        -45.7720   -28.7080     4.0890 ca         1 QT6       0.426900
      9 C20        -46.3690   -29.3910     6.3220 ca         1 QT6       0.190500
     10 C02        -43.7710   -26.5150    -2.4440 c          1 QT6       0.703000
     11 C03        -43.0260   -26.6500    -1.1000 c3         1 QT6      -0.200400
     12 C04        -43.9520   -26.3900     0.1250 c3         1 QT6      -0.045400
     13 C05        -44.7140   -27.6170     0.7210 c6         1 QT6      -0.072700
     14 C06        -45.7280   -28.2600    -0.2720 c6         1 QT6      -0.081400
     15 C07        -46.8380   -29.0740     0.4450 c6         1 QT6      -0.088400
     16 C08        -46.3910   -29.5760     1.8380 c6         1 QT6       0.211800
     17 C22        -44.2030   -28.9930     5.7630 ca         1 QT6       0.179900
     18 C24        -45.4160   -27.2470     2.0590 c6         1 QT6       0.202800
     19 F18        -52.2840   -29.6720     5.6520 f          1 QT6      -0.193000
     20 N09        -46.0260   -28.4400     2.7310 nh         1 QT6      -0.759300
     21 N19        -47.5590   -29.7120     6.9900 na         1 QT6      -0.338300
     22 N21        -45.0890   -29.3610     6.7180 nb         1 QT6      -0.254000
     23 N23        -44.4770   -28.6730     4.4760 nb         1 QT6      -0.270000
     24 O01        -43.9190   -25.3940    -2.9070 o          1 QT6      -0.745000
     25 O25        -44.1770   -27.5270    -2.9930 o          1 QT6      -0.745000
     26 H161       -51.2470   -28.8630     3.3770 ha         1 QT6       0.129000
     27 H171       -48.8020   -28.5240     2.9340 ha         1 QT6       0.133000
     28 H141       -50.3800   -30.0880     7.4480 ha         1 QT6       0.130000
     29 H032       -42.2730   -25.8540    -1.0370 hc         1 QT6       0.022200
     30 H031       -42.6030   -27.6540    -0.9800 hc         1 QT6       0.022200
     31 H042       -43.3170   -25.9760     0.9180 hc         1 QT6       0.027200
     32 H041       -44.6610   -25.5900    -0.1230 hc         1 QT6       0.027200
     33 H051       -43.9420   -28.3630     0.9570 hc         1 QT6       0.044700
     34 H062       -46.1990   -27.4880    -0.8960 hc         1 QT6       0.078700
     35 H061       -45.1820   -28.9220    -0.9580 hc         1 QT6       0.078700
     36 H071       -47.7330   -28.4470     0.5640 hc         1 QT6       0.041700
     37 H072       -47.1430   -29.9240    -0.1800 hc         1 QT6       0.041700
     38 H081       -47.2060   -30.1650     2.2840 h1         1 QT6       0.038700
     39 H082       -45.5300   -30.2510     1.7200 h1         1 QT6       0.038700
     40 H221       -43.1560   -28.9600     6.0600 h5         1 QT6       0.044100
     41 H242       -46.1950   -26.4960     1.8630 h1         1 QT6       0.059200
     42 H241       -44.6820   -26.7630     2.7220 h1         1 QT6       0.059200
     43 H191       -47.5880   -30.0030     7.9590 hn         1 QT6       0.361000
@<TRIPOS>BOND
     1     1     2 ar  
     2     1     3 ar  
     3     1    26 1   
     4     2     6 ar  
     5     2    27 1   
     6     3     4 ar  
     7     3    19 1   
     8     4     5 ar  
     9     4    28 1   
    10     5     6 ar  
    11     5    21 1   
    12     6     7 1   
    13     7     8 ar  
    14     7     9 ar  
    15     8    20 1   
    16     8    23 ar  
    17     9    21 1   
    18     9    22 ar  
    19    10    11 1   
    20    10    24 1   
    21    10    25 1   
    22    11    12 1   
    23    11    29 1   
    24    11    30 1   
    25    12    13 1   
    26    12    31 1   
    27    12    32 1   
    28    13    14 1   
    29    13    18 1   
    30    13    33 1   
    31    14    15 1   
    32    14    34 1   
    33    14    35 1   
    34    15    16 1   
    35    15    36 1   
    36    15    37 1   
    37    16    20 1   
    38    16    38 1   
    39    16    39 1   
    40    17    22 ar  
    41    17    23 ar  
    42    17    40 1   
    43    18    20 1   
    44    18    41 1   
    45    18    42 1   
    46    21    43 1   
@<TRIPOS>SUBSTRUCTURE
     1 QT6         1 TEMP              0 ****  ****    0 ROOT
