@<TRIPOS>MOLECULE
QT7
   37    37     1     0     0
SMALL
abcg2


@<TRIPOS>ATOM
      1 N1         -12.4300   -35.5960    11.8610 n          1 QT7      -0.400800
      2 C4         -12.9160   -36.9440    12.1950 c3         1 QT7       0.115000
      3 C5         -14.7130   -37.1050    10.4060 c3         1 QT7      -0.087767
      4 C6         -13.2710   -33.2620    12.4780 c5         1 QT7      -0.065400
      5 C7         -12.3390   -32.0660    12.6660 c5         1 QT7      -0.286400
      6 C8         -11.1820   -34.2530    13.5440 c5         1 QT7      -0.328400
      7 C10        -11.4940   -36.3190     9.6800 c3         1 QT7       0.041600
      8 C1         -14.4060   -37.2290    11.9020 c3         1 QT7      -0.069000
      9 C3         -15.3250   -36.2790    12.6790 c3         1 QT7      -0.087767
     10 C2         -14.6620   -38.6700    12.3630 c3         1 QT7      -0.087767
     11 O1         -11.2950   -34.1280    10.5730 o          1 QT7      -0.597100
     12 O2         -10.0150   -31.8770    14.0410 o          1 QT7      -0.523500
     13 C9         -11.7500   -35.2580    10.7420 c          1 QT7       0.597100
     14 C51        -12.5530   -34.5800    12.9180 c5         1 QT7       0.133700
     15 S          -11.3060   -32.5420    14.0490 s6         1 QT7       1.099000
     16 H1         -12.3030   -37.6850    11.6880 h1         1 QT7       0.050700
     17 H2         -12.7360   -37.0840    13.2620 h1         1 QT7       0.050700
     18 H3         -15.7730   -37.2930    10.2280 hc         1 QT7       0.039256
     19 H4         -14.4870   -36.1040    10.0340 hc         1 QT7       0.039256
     20 H5         -14.1450   -37.8290     9.8180 hc         1 QT7       0.039256
     21 H6         -14.1620   -33.1350    13.0910 hc         1 QT7       0.074200
     22 H7         -13.5850   -33.3280    11.4400 hc         1 QT7       0.074200
     23 H8         -11.6720   -31.9270    11.8170 h1         1 QT7       0.117700
     24 H9         -12.8430   -31.1360    12.9170 h1         1 QT7       0.117700
     25 H10        -10.9490   -34.8580    14.4160 h1         1 QT7       0.115200
     26 H11        -10.3770   -34.3020    12.8160 h1         1 QT7       0.115200
     27 H12        -10.4200   -36.4780     9.6140 h1         1 QT7       0.084200
     28 H13        -11.9950   -37.2630     9.8310 h1         1 QT7       0.084200
     29 H15        -15.1180   -36.3110    13.7510 hc         1 QT7       0.039256
     30 H16        -15.2220   -35.2490    12.3360 hc         1 QT7       0.039256
     31 H17        -16.3660   -36.5710    12.5290 hc         1 QT7       0.039256
     32 H18        -14.4690   -38.7780    13.4330 hc         1 QT7       0.039256
     33 H19        -15.7010   -38.9490    12.1760 hc         1 QT7       0.039256
     34 H20        -14.0200   -39.3730    11.8280 hc         1 QT7       0.039256
     35 H21        -13.1630   -35.0380    13.6860 h1         1 QT7       0.072700
     36 CL1        -12.0320   -35.7180     8.0660 cl         1 QT7      -0.240000
     37 O3         -12.0920   -32.4720    15.2730 o          1 QT7      -0.523500
@<TRIPOS>BOND
     1     1     2 1   
     2     1    13 1   
     3     1    14 1   
     4     2     8 1   
     5     2    16 1   
     6     2    17 1   
     7     3     8 1   
     8     3    18 1   
     9     3    19 1   
    10     3    20 1   
    11     4     5 1   
    12     4    14 1   
    13     4    21 1   
    14     4    22 1   
    15     5    15 1   
    16     5    23 1   
    17     5    24 1   
    18     6    14 1   
    19     6    15 1   
    20     6    25 1   
    21     6    26 1   
    22     7    13 1   
    23     7    27 1   
    24     7    28 1   
    25     7    36 1   
    26     8     9 1   
    27     8    10 1   
    28     9    29 1   
    29     9    30 1   
    30     9    31 1   
    31    10    32 1   
    32    10    33 1   
    33    10    34 1   
    34    11    13 2   
    35    12    15 2   
    36    14    35 1   
    37    15    37 2   
@<TRIPOS>SUBSTRUCTURE
     1 QT7         1 TEMP              0 ****  ****    0 ROOT
