@<TRIPOS>MOLECULE
QT7
   37    37     1     0     0
SMALL
No Charge or Current Charge


@<TRIPOS>ATOM
      1 N1         -12.4140   -35.5720    11.8590 n          1 QT7      -0.400800
      2 C4         -12.8860   -36.9600    12.1550 c3         1 QT7       0.115000
      3 C5         -14.8930   -36.9200    10.5280 c3         1 QT7      -0.087767
      4 C6         -13.3310   -33.2620    12.4060 c5         1 QT7      -0.065400
      5 C7         -12.4010   -32.0200    12.6280 c5         1 QT7      -0.286400
      6 C8         -11.1060   -34.1340    13.3960 c5         1 QT7      -0.328400
      7 C10        -11.4370   -36.4340     9.6320 c3         1 QT7       0.041600
      8 C1         -14.4170   -37.2440    11.9690 c3         1 QT7      -0.069000
      9 C3         -15.2710   -36.4260    12.9740 c3         1 QT7      -0.087767
     10 C2         -14.6610   -38.7520    12.2420 c3         1 QT7      -0.087767
     11 O1         -11.4000   -34.1410    10.3330 o          1 QT7      -0.597100
     12 O2         -10.1070   -31.6960    14.0740 o          1 QT7      -0.523500
     13 C9         -11.7490   -35.2820    10.6180 c          1 QT7       0.597100
     14 C51        -12.5380   -34.5260    12.9270 c5         1 QT7       0.133700
     15 S          -11.3630   -32.4580    14.0820 s6         1 QT7       1.099000
     16 H1         -12.3190   -37.6950    11.5750 h1         1 QT7       0.050700
     17 H2         -12.6300   -37.1710    13.2020 h1         1 QT7       0.050700
     18 H3         -15.9750   -37.0710    10.4340 hc         1 QT7       0.039256
     19 H4         -14.6800   -35.8770    10.2620 hc         1 QT7       0.039256
     20 H5         -14.4090   -37.5730     9.7940 hc         1 QT7       0.039256
     21 H6         -14.2520   -33.1480    12.9910 hc         1 QT7       0.074200
     22 H7         -13.6610   -33.3480    11.3640 hc         1 QT7       0.074200
     23 H8         -11.7020   -31.8640    11.8000 h1         1 QT7       0.117700
     24 H9         -12.9340   -31.0900    12.8540 h1         1 QT7       0.117700
     25 H10        -10.7030   -34.7730    14.1890 h1         1 QT7       0.115200
     26 H11        -10.3750   -34.0150    12.5910 h1         1 QT7       0.115200
     27 H12        -10.7690   -37.1470    10.1290 h1         1 QT7       0.084200
     28 H13        -12.3660   -36.9400     9.3590 h1         1 QT7       0.084200
     29 H15        -14.9140   -36.5660    14.0020 hc         1 QT7       0.039256
     30 H16        -15.2460   -35.3570    12.7410 hc         1 QT7       0.039256
     31 H17        -16.3220   -36.7400    12.9400 hc         1 QT7       0.039256
     32 H18        -14.3630   -39.0190    13.2640 hc         1 QT7       0.039256
     33 H19        -15.7210   -39.0080    12.1230 hc         1 QT7       0.039256
     34 H20        -14.0850   -39.3770    11.5490 hc         1 QT7       0.039256
     35 H21        -13.0810   -34.9360    13.7900 h1         1 QT7       0.072700
     36 Cl1        -10.6240   -35.9210     8.0740 cl         1 QT7      -0.240000
     37 O3         -12.1840   -32.5250    15.2980 o          1 QT7      -0.523500
@<TRIPOS>BOND
     1     1     2 1   
     2     1    13 1   
     3     1    14 1   
     4     2     8 1   
     5     2    16 1   
     6     2    17 1   
     7     3     8 1   
     8     3    18 1   
     9     3    19 1   
    10     3    20 1   
    11     4     5 1   
    12     4    14 1   
    13     4    21 1   
    14     4    22 1   
    15     5    15 1   
    16     5    23 1   
    17     5    24 1   
    18     6    14 1   
    19     6    15 1   
    20     6    25 1   
    21     6    26 1   
    22     7    13 1   
    23     7    27 1   
    24     7    28 1   
    25     7    36 1   
    26     8     9 1   
    27     8    10 1   
    28     9    29 1   
    29     9    30 1   
    30     9    31 1   
    31    10    32 1   
    32    10    33 1   
    33    10    34 1   
    34    11    13 2   
    35    12    15 2   
    36    14    35 1   
    37    15    37 2   
@<TRIPOS>SUBSTRUCTURE
     1 QT7         1 TEMP              0 ****  ****    0 ROOT
