@<TRIPOS>MOLECULE
QT8
   15    14     1     0     0
SMALL
No Charge or Current Charge


@<TRIPOS>ATOM
      1 OAB        -22.0230   -12.0900   -26.3320 o          1 QT8      -0.725000
      2 CAH        -22.3200   -11.0340   -25.7990 c          1 QT8       0.736000
      3 OAC        -23.4640   -10.7030   -25.5340 o          1 QT8      -0.725000
      4 CAF        -21.2150   -10.0510   -25.4980 c3         1 QT8      -0.334400
      5 CAE        -21.0840    -9.2000   -26.7510 c          1 QT8       0.619100
      6 OAA        -20.4010    -9.5690   -27.6990 o          1 QT8      -0.582100
      7 CAD        -21.7850    -7.8280   -26.7720 c3         1 QT8      -0.181400
      8 CAG        -23.0340    -7.8310   -27.6780 c3         1 QT8      -0.069100
      9 H2         -20.2610   -10.5760   -25.3740 hc         1 QT8       0.041200
     10 H3         -21.5250    -9.3950   -24.6770 hc         1 QT8       0.041200
     11 H4         -21.0840    -7.0800   -27.1590 hc         1 QT8       0.053700
     12 H5         -22.1050    -7.5450   -25.7630 hc         1 QT8       0.053700
     13 H6         -23.5020    -6.8390   -27.6870 hc         1 QT8       0.023700
     14 H7         -22.7660    -8.0920   -28.7090 hc         1 QT8       0.023700
     15 H8         -23.7760    -8.5540   -27.3210 hc         1 QT8       0.023700
@<TRIPOS>BOND
     1     1     2 1   
     2     2     3 1   
     3     2     4 1   
     4     4     5 1   
     5     4     9 1   
     6     4    10 1   
     7     5     6 2   
     8     5     7 1   
     9     7     8 1   
    10     7    11 1   
    11     7    12 1   
    12     8    13 1   
    13     8    14 1   
    14     8    15 1   
@<TRIPOS>SUBSTRUCTURE
     1 QT8         1 TEMP              0 ****  ****    0 ROOT
