@<TRIPOS>MOLECULE
QT8
   15    14     1     0     0
SMALL
abcg2


@<TRIPOS>ATOM
      1 OAB        -21.7420   -11.9670   -24.4850 o          1 QT8      -0.725000
      2 CAH        -22.1050   -11.1430   -25.3390 c          1 QT8       0.736000
      3 OAC        -23.2420   -10.9890   -25.8230 o          1 QT8      -0.725000
      4 CAF        -20.9950   -10.1810   -25.8610 c3         1 QT8      -0.334400
      5 CAE        -21.5010    -9.3640   -27.0130 c          1 QT8       0.619100
      6 OAA        -21.3690    -9.7280   -28.1630 o          1 QT8      -0.582100
      7 CAD        -22.1800    -8.0650   -26.6600 c3         1 QT8      -0.181400
      8 CAG        -22.8940    -7.3820   -27.8120 c3         1 QT8      -0.069100
      9 H2         -20.1250   -10.7660   -26.1690 hc         1 QT8       0.041200
     10 H3         -20.6790    -9.5380   -25.0340 hc         1 QT8       0.041200
     11 H4         -21.4050    -7.4100   -26.2440 hc         1 QT8       0.053700
     12 H5         -22.8630    -8.2540   -25.8290 hc         1 QT8       0.053700
     13 H6         -23.3530    -6.4520   -27.4780 hc         1 QT8       0.023700
     14 H7         -22.2090    -7.1380   -28.6240 hc         1 QT8       0.023700
     15 H8         -23.6830    -8.0120   -28.2210 hc         1 QT8       0.023700
@<TRIPOS>BOND
     1     1     2 1   
     2     2     3 1   
     3     2     4 1   
     4     4     5 1   
     5     4     9 1   
     6     4    10 1   
     7     5     6 2   
     8     5     7 1   
     9     7     8 1   
    10     7    11 1   
    11     7    12 1   
    12     8    13 1   
    13     8    14 1   
    14     8    15 1   
@<TRIPOS>SUBSTRUCTURE
     1 QT8         1 TEMP              0 ****  ****    0 ROOT
