@<TRIPOS>MOLECULE
QTA
   30    31     1     0     0
SMALL
abcg2


@<TRIPOS>ATOM
      1 C4          35.1670    31.8440    22.9340 ca         1 QTA      -0.277500
      2 C5          35.3260    31.6310    24.2920 ca         1 QTA       0.088000
      3 C6          37.5510    31.7760    21.4880 ca         1 QTA      -0.267500
      4 C7          38.6280    31.4580    22.3050 ca         1 QTA      -0.015000
      5 C8          39.5850    30.5720    21.8340 ca         1 QTA      -0.128500
      6 C10         38.3790    30.3490    19.7600 ca         1 QTA      -0.128500
      7 N           35.7570    29.3620    26.6890 n8         1 QTA      -1.011100
      8 C           34.4130    30.8080    24.9320 ca         1 QTA      -0.283500
      9 O           35.2000    31.7050    27.2840 o          1 QTA      -0.537500
     10 C1          33.3640    30.2140    24.2470 ca         1 QTA       0.028000
     11 C11         37.4140    31.2340    20.2160 ca         1 QTA      -0.015000
     12 C2          33.2280    30.4430    22.8850 ca         1 QTA      -0.148000
     13 C3          34.1250    31.2620    22.2220 ca         1 QTA       0.033000
     14 C9          39.4610    30.0200    20.5660 ca         1 QTA      -0.055000
     15 O1          33.3110    30.0620    27.1750 o          1 QTA      -0.537500
     16 O2          35.6330    33.4810    20.9390 o          1 QTA      -0.520500
     17 O3          36.9360    33.7700    23.0820 o          1 QTA      -0.520500
     18 S           34.5950    30.5300    26.6770 sy         1 QTA       1.129600
     19 S1          36.3210    32.9000    22.0850 sy         1 QTA       1.021000
     20 H1          36.1350    32.0960    24.8400 ha         1 QTA       0.159000
     21 H2          38.7320    31.8910    23.2900 ha         1 QTA       0.136000
     22 H3          40.4290    30.3170    22.4600 ha         1 QTA       0.120500
     23 H4          38.2870    29.9230    18.7700 ha         1 QTA       0.120500
     24 H5          36.2580    29.3390    27.5730 hn         1 QTA       0.477000
     25 H6          35.3990    28.4410    26.4600 hn         1 QTA       0.477000
     26 H7          32.6530    29.5830    24.7610 ha         1 QTA       0.139000
     27 H8          36.5770    31.4950    19.5830 ha         1 QTA       0.136000
     28 H9          32.4110    29.9880    22.3430 ha         1 QTA       0.126000
     29 H10         34.0030    31.4470    21.1630 ha         1 QTA       0.137000
     30 H11         40.2130    29.3320    20.2030 ha         1 QTA       0.118000
@<TRIPOS>BOND
     1     1     2 ar  
     2     1    13 ar  
     3     1    19 1   
     4     2     8 ar  
     5     2    20 1   
     6     3     4 ar  
     7     3    11 ar  
     8     3    19 1   
     9     4     5 ar  
    10     4    21 1   
    11     5    14 ar  
    12     5    22 1   
    13     6    11 ar  
    14     6    14 ar  
    15     6    23 1   
    16     7    18 1   
    17     7    24 1   
    18     7    25 1   
    19     8    10 ar  
    20     8    18 1   
    21     9    18 2   
    22    10    12 ar  
    23    10    26 1   
    24    11    27 1   
    25    12    13 ar  
    26    12    28 1   
    27    13    29 1   
    28    14    30 1   
    29    15    18 2   
    30    16    19 2   
    31    17    19 2   
@<TRIPOS>SUBSTRUCTURE
     1 QTA         1 TEMP              0 ****  ****    0 ROOT
