@<TRIPOS>MOLECULE
QTA
   30    31     1     0     0
SMALL
No Charge or Current Charge


@<TRIPOS>ATOM
      1 C4          35.1460    31.9100    22.8990 ca         1 QTA      -0.277500
      2 C5          35.3120    31.6370    24.2710 ca         1 QTA       0.088000
      3 C6          37.5690    31.8370    21.4630 ca         1 QTA      -0.267500
      4 C7          38.6870    31.5320    22.2690 ca         1 QTA      -0.015000
      5 C8          39.6570    30.6240    21.8100 ca         1 QTA      -0.128500
      6 C10         38.4030    30.3130    19.7490 ca         1 QTA      -0.128500
      7 N           35.5890    29.1310    26.6730 n8         1 QTA      -1.011100
      8 C           34.4060    30.7820    24.9290 ca         1 QTA      -0.283500
      9 O           35.4260    31.4710    27.3130 o          1 QTA      -0.537500
     10 C1          33.3420    30.1960    24.2160 ca         1 QTA       0.028000
     11 C11         37.4280    31.2200    20.2010 ca         1 QTA      -0.015000
     12 C2          33.1850    30.4680    22.8460 ca         1 QTA      -0.148000
     13 C3          34.0830    31.3220    22.1850 ca         1 QTA       0.033000
     14 C9          39.5180    30.0150    20.5520 ca         1 QTA      -0.055000
     15 O1          33.3740    29.9420    27.2620 o          1 QTA      -0.537500
     16 O2          35.6300    33.5530    20.8790 o          1 QTA      -0.520500
     17 O3          36.9330    33.8580    23.0630 o          1 QTA      -0.520500
     18 S           34.6150    30.4390    26.6720 sy         1 QTA       1.129600
     19 S1          36.3110    32.9890    22.0540 sy         1 QTA       1.021000
     20 H1          36.1400    32.0820    24.8230 ha         1 QTA       0.159000
     21 H2          38.8090    31.9920    23.2480 ha         1 QTA       0.136000
     22 H3          40.5190    30.3910    22.4320 ha         1 QTA       0.120500
     23 H4          38.2930    29.8400    18.7760 ha         1 QTA       0.120500
     24 H5          36.2950    29.4280    27.3420 hn         1 QTA       0.477000
     25 H6          35.0290    28.4880    27.2280 hn         1 QTA       0.477000
     26 H7          32.6380    29.5300    24.7140 ha         1 QTA       0.139000
     27 H8          36.5690    31.4380    19.5690 ha         1 QTA       0.136000
     28 H9          32.3650    30.0140    22.2950 ha         1 QTA       0.126000
     29 H10         33.9490    31.5190    21.1220 ha         1 QTA       0.137000
     30 H11         40.2700    29.3120    20.2000 ha         1 QTA       0.118000
@<TRIPOS>BOND
     1     1     2 ar  
     2     1    13 ar  
     3     1    19 1   
     4     2     8 ar  
     5     2    20 1   
     6     3     4 ar  
     7     3    11 ar  
     8     3    19 1   
     9     4     5 ar  
    10     4    21 1   
    11     5    14 ar  
    12     5    22 1   
    13     6    11 ar  
    14     6    14 ar  
    15     6    23 1   
    16     7    18 1   
    17     7    24 1   
    18     7    25 1   
    19     8    10 ar  
    20     8    18 1   
    21     9    18 2   
    22    10    12 ar  
    23    10    26 1   
    24    11    27 1   
    25    12    13 ar  
    26    12    28 1   
    27    13    29 1   
    28    14    30 1   
    29    15    18 2   
    30    16    19 2   
    31    17    19 2   
@<TRIPOS>SUBSTRUCTURE
     1 QTA         1 TEMP              0 ****  ****    0 ROOT
