@<TRIPOS>MOLECULE
QTB
   47    47     1     0     0
SMALL
bcc


@<TRIPOS>ATOM
      1 C01        205.5920   170.6190   136.4250 c3         1 QTB      -0.064900
      2 C02        206.4700   170.2730   135.2630 ce         1 QTB      -0.022200
      3 C03        206.0130   169.9970   134.0160 cf         1 QTB      -0.168000
      4 C04        204.6460   169.9990   133.5790 cf         1 QTB      -0.036000
      5 C05        204.2820   169.7390   132.3090 ce         1 QTB      -0.279200
      6 C06        202.8820   169.7600   131.8610 c          1 QTB       0.572300
      7 C08        202.6720   169.4810   130.3970 c3         1 QTB      -0.195100
      8 C09        207.9090   170.2370   135.4800 ce         1 QTB      -0.160000
      9 C10        208.5350   170.5200   136.6290 c2         1 QTB      -0.124200
     10 C11        210.0170   170.4920   136.8040 c6         1 QTB      -0.023500
     11 C12        210.5560   171.8270   137.3460 c6         1 QTB      -0.052700
     12 C13        209.9580   173.0400   136.6430 c3         1 QTB      -0.087100
     13 C14        212.0890   171.8460   137.2200 c6         1 QTB      -0.072400
     14 C15        212.7150   170.4560   137.3660 c6         1 QTB      -0.072400
     15 C16        211.8700   169.5980   138.2940 c6         1 QTB      -0.069400
     16 C17        210.4770   169.2950   137.7000 c6         1 QTB      -0.036000
     17 C18        209.5130   169.0370   138.8590 c3         1 QTB      -0.084100
     18 C19        210.5510   168.0410   136.8280 c3         1 QTB      -0.084100
     19 O07        201.9530   169.9910   132.6140 o          1 QTB      -0.536100
     20 H1         205.8440   171.6060   136.8180 hc         1 QTB       0.047700
     21 H2         204.5340   170.6230   136.1790 hc         1 QTB       0.047700
     22 H3         205.7410   169.9090   137.2400 hc         1 QTB       0.047700
     23 H4         206.7510   169.7570   133.2560 ha         1 QTB       0.123000
     24 H5         203.8660   170.2260   134.2980 ha         1 QTB       0.140000
     25 H6         205.0380   169.5110   131.5640 ha         1 QTB       0.129000
     26 H7         201.6170   169.5030   130.1310 hc         1 QTB       0.058700
     27 H8         203.2090   170.2160   129.7940 hc         1 QTB       0.058700
     28 H9         203.0880   168.5050   130.1370 hc         1 QTB       0.058700
     29 H10        208.5130   169.9690   134.6170 ha         1 QTB       0.122000
     30 H11        207.9520   170.8060   137.5010 ha         1 QTB       0.121000
     31 H12        210.4590   170.3470   135.8090 hc         1 QTB       0.051700
     32 H13        210.2870   171.8910   138.4080 hc         1 QTB       0.047700
     33 H14        210.4300   173.9590   136.9960 hc         1 QTB       0.034033
     34 H15        210.1150   172.9800   135.5640 hc         1 QTB       0.034033
     35 H16        208.8850   173.1340   136.8170 hc         1 QTB       0.034033
     36 H17        212.3630   172.2740   136.2510 hc         1 QTB       0.038200
     37 H18        212.4970   172.5220   137.9780 hc         1 QTB       0.038200
     38 H19        212.7920   169.9690   136.3890 hc         1 QTB       0.039700
     39 H20        213.7370   170.5370   137.7400 hc         1 QTB       0.039700
     40 H21        211.7600   170.1220   139.2500 hc         1 QTB       0.040700
     41 H22        212.3710   168.6550   138.5260 hc         1 QTB       0.040700
     42 H23        209.3360   169.9400   139.4470 hc         1 QTB       0.034033
     43 H24        208.5460   168.6610   138.5190 hc         1 QTB       0.034033
     44 H25        209.9360   168.2870   139.5310 hc         1 QTB       0.034033
     45 H26        210.8080   167.1640   137.4250 hc         1 QTB       0.034033
     46 H27        209.5950   167.8430   136.3400 hc         1 QTB       0.034033
     47 H28        211.3060   168.1470   136.0460 hc         1 QTB       0.034033
@<TRIPOS>BOND
     1     1     2 1   
     2     1    20 1   
     3     1    21 1   
     4     1    22 1   
     5     2     3 2   
     6     2     8 1   
     7     3     4 1   
     8     3    23 1   
     9     4     5 2   
    10     4    24 1   
    11     5     6 1   
    12     5    25 1   
    13     6     7 1   
    14     6    19 2   
    15     7    26 1   
    16     7    27 1   
    17     7    28 1   
    18     8     9 2   
    19     8    29 1   
    20     9    10 1   
    21     9    30 1   
    22    10    11 1   
    23    10    16 1   
    24    10    31 1   
    25    11    12 1   
    26    11    13 1   
    27    11    32 1   
    28    12    33 1   
    29    12    34 1   
    30    12    35 1   
    31    13    14 1   
    32    13    36 1   
    33    13    37 1   
    34    14    15 1   
    35    14    38 1   
    36    14    39 1   
    37    15    16 1   
    38    15    40 1   
    39    15    41 1   
    40    16    17 1   
    41    16    18 1   
    42    17    42 1   
    43    17    43 1   
    44    17    44 1   
    45    18    45 1   
    46    18    46 1   
    47    18    47 1   
@<TRIPOS>SUBSTRUCTURE
     1 QTB         1 TEMP              0 ****  ****    0 ROOT
