@<TRIPOS>MOLECULE
QTB
   47    47     1     0     0
SMALL
No Charge or Current Charge


@<TRIPOS>ATOM
      1 C01        205.5120   170.4320   136.4670 c3         1 QTB      -0.064900
      2 C02        206.4340   170.2440   135.2650 ce         1 QTB      -0.022200
      3 C03        205.9660   170.0420   133.9970 cf         1 QTB      -0.218000
      4 C04        204.5750   170.0370   133.5540 cf         1 QTB      -0.086000
      5 C05        204.1910   169.7670   132.2740 ce         1 QTB      -0.329200
      6 C06        202.7820   169.7600   131.7860 c          1 QTB       0.572300
      7 C08        202.5690   169.4320   130.3120 c3         1 QTB      -0.195100
      8 C09        207.8860   170.2090   135.5240 ce         1 QTB      -0.210000
      9 C10        208.5090   170.6520   136.6430 c2         1 QTB      -0.174200
     10 C11        210.0460   170.5730   136.8140 c6         1 QTB      -0.023500
     11 C12        210.6370   171.9080   137.3600 c6         1 QTB      -0.052700
     12 C13        210.1040   173.1770   136.6350 c3         1 QTB      -0.087100
     13 C14        212.2160   171.8370   137.2740 c6         1 QTB      -0.072400
     14 C15        212.8460   170.4040   137.4520 c6         1 QTB      -0.072400
     15 C16        211.9140   169.5430   138.3300 c6         1 QTB      -0.069400
     16 C17        210.4920   169.3280   137.6900 c6         1 QTB      -0.036000
     17 C18        209.4890   169.0350   138.8540 c3         1 QTB      -0.084100
     18 C19        210.5060   168.0580   136.7850 c3         1 QTB      -0.084100
     19 O07        201.8380   170.0050   132.5270 o          1 QTB      -0.536100
     20 H1         205.3160   171.4950   136.6510 hc         1 QTB       0.047700
     21 H2         204.5480   169.9310   136.3350 hc         1 QTB       0.047700
     22 H3         205.9400   170.0050   137.3810 hc         1 QTB       0.047700
     23 H4         206.7070   169.8810   133.2120 ha         1 QTB       0.173000
     24 H5         203.7990   170.2730   134.2860 ha         1 QTB       0.190000
     25 H6         204.9490   169.5350   131.5280 ha         1 QTB       0.179000
     26 H7         201.5120   169.4450   130.0220 hc         1 QTB       0.058700
     27 H8         203.1650   170.1230   129.7050 hc         1 QTB       0.058700
     28 H9         203.0380   168.4670   130.0920 hc         1 QTB       0.058700
     29 H10        208.4940   169.7990   134.7160 ha         1 QTB       0.172000
     30 H11        207.9200   171.0970   137.4610 ha         1 QTB       0.171000
     31 H12        210.4750   170.4500   135.8080 hc         1 QTB       0.051700
     32 H13        210.3450   172.0140   138.4150 hc         1 QTB       0.047700
     33 H14        210.6000   174.0800   137.0100 hc         1 QTB       0.034033
     34 H15        210.2830   173.1230   135.5540 hc         1 QTB       0.034033
     35 H16        209.0270   173.3110   136.7900 hc         1 QTB       0.034033
     36 H17        212.5560   172.2390   136.3090 hc         1 QTB       0.038200
     37 H18        212.6350   172.5100   138.0350 hc         1 QTB       0.038200
     38 H19        212.9800   169.9260   136.4720 hc         1 QTB       0.039700
     39 H20        213.8440   170.4800   137.9050 hc         1 QTB       0.039700
     40 H21        211.8170   170.0370   139.3070 hc         1 QTB       0.040700
     41 H22        212.3900   168.5750   138.5400 hc         1 QTB       0.040700
     42 H23        209.3460   169.9160   139.4910 hc         1 QTB       0.034033
     43 H24        208.5020   168.7310   138.4850 hc         1 QTB       0.034033
     44 H25        209.8520   168.2230   139.4970 hc         1 QTB       0.034033
     45 H26        210.7830   167.1600   137.3500 hc         1 QTB       0.034033
     46 H27        209.5210   167.8760   136.3390 hc         1 QTB       0.034033
     47 H28        211.2230   168.1630   135.9630 hc         1 QTB       0.034033
@<TRIPOS>BOND
     1     1     2 1   
     2     1    20 1   
     3     1    21 1   
     4     1    22 1   
     5     2     3 2   
     6     2     8 1   
     7     3     4 1   
     8     3    23 1   
     9     4     5 2   
    10     4    24 1   
    11     5     6 1   
    12     5    25 1   
    13     6     7 1   
    14     6    19 2   
    15     7    26 1   
    16     7    27 1   
    17     7    28 1   
    18     8     9 2   
    19     8    29 1   
    20     9    10 1   
    21     9    30 1   
    22    10    11 1   
    23    10    16 1   
    24    10    31 1   
    25    11    12 1   
    26    11    13 1   
    27    11    32 1   
    28    12    33 1   
    29    12    34 1   
    30    12    35 1   
    31    13    14 1   
    32    13    36 1   
    33    13    37 1   
    34    14    15 1   
    35    14    38 1   
    36    14    39 1   
    37    15    16 1   
    38    15    40 1   
    39    15    41 1   
    40    16    17 1   
    41    16    18 1   
    42    17    42 1   
    43    17    43 1   
    44    17    44 1   
    45    18    45 1   
    46    18    46 1   
    47    18    47 1   
@<TRIPOS>SUBSTRUCTURE
     1 QTB         1 TEMP              0 ****  ****    0 ROOT
