@<TRIPOS>MOLECULE
QTC
   40    42     1     0     0
SMALL
No Charge or Current Charge


@<TRIPOS>ATOM
      1 N1         -16.4840     5.1250    25.5180 nb         1 QTC      -0.657000
      2 C4         -22.6240     3.6800    31.1620 ca         1 QTC       0.129000
      3 C5         -22.4320     3.4020    29.8000 ca         1 QTC      -0.085000
      4 C6         -22.2860     4.4560    28.8780 ca         1 QTC      -0.080300
      5 C7         -22.0540     4.1660    27.3990 c3         1 QTC      -0.112100
      6 C8         -20.5520     4.1440    27.0930 c          1 QTC       0.599100
      7 C10        -17.7390     4.7950    25.9000 ca         1 QTC       0.345900
      8 C13        -16.6620     8.8100    25.7900 ca         1 QTC      -0.079000
      9 C15        -18.8750     9.4890    26.5400 ca         1 QTC      -0.087000
     10 C17        -18.3710     7.1160    26.2350 ca         1 QTC      -0.014000
     11 O          -19.8680     3.1440    27.2760 o          1 QTC      -0.571100
     12 C3         -22.6680     5.0080    31.6150 ca         1 QTC      -0.099000
     13 C18        -22.3330     5.7870    29.3360 ca         1 QTC      -0.115000
     14 C2         -22.5210     6.0710    30.7020 ca         1 QTC      -0.068300
     15 C1         -22.5550     7.5160    31.1830 c3         1 QTC      -0.035100
     16 C          -21.1610     8.1710    31.1670 c3         1 QTC      -0.088100
     17 C9         -18.7230     5.7450    26.2720 ca         1 QTC      -0.091000
     18 C16        -19.2770     8.1430    26.5880 ca         1 QTC      -0.106000
     19 C14        -17.5700     9.8230    26.1410 ca         1 QTC      -0.111000
     20 C12        -17.0600     7.4600    25.8380 ca         1 QTC      -0.095000
     21 C11        -16.1580     6.4370    25.4930 ca         1 QTC       0.364900
     22 H1         -22.3920     2.3680    29.4650 ha         1 QTC       0.143000
     23 H2         -22.5370     4.9540    26.8090 hc         1 QTC       0.075700
     24 H3         -22.4850     3.1930    27.1350 hc         1 QTC       0.075700
     25 H4         -17.9570     3.7290    25.8800 h4         1 QTC       0.030100
     26 H5         -15.6520     9.0750    25.4840 ha         1 QTC       0.119000
     27 H6         -19.5750    10.2750    26.8130 ha         1 QTC       0.116000
     28 H7         -22.8110     5.2090    32.6730 ha         1 QTC       0.131000
     29 H8         -22.2180     6.6070    28.6310 ha         1 QTC       0.110000
     30 H9         -23.2310     8.1030    30.5490 hc         1 QTC       0.050700
     31 H10        -22.9630     7.5740    32.2000 hc         1 QTC       0.050700
     32 H11        -21.2190     9.2040    31.5280 hc         1 QTC       0.036700
     33 H12        -20.4690     7.6190    31.8140 hc         1 QTC       0.036700
     34 H13        -20.7480     8.1850    30.1510 hc         1 QTC       0.036700
     35 H14        -20.7240     6.1020    26.6010 hn         1 QTC       0.153000
     36 H15        -20.2910     7.9170    26.9050 ha         1 QTC       0.122000
     37 H16        -17.2620    10.8660    26.1040 ha         1 QTC       0.118000
     38 H17        -15.1400     6.6720    25.1840 h4         1 QTC       0.021100
     39 N          -20.0410     5.3590    26.6560 ns         1 QTC      -0.168000
     40 Cl         -22.8040     2.3580    32.3090 cl         1 QTC      -0.206000
@<TRIPOS>BOND
     1     1     7 ar  
     2     1    21 ar  
     3     2     3 ar  
     4     2    12 ar  
     5     2    40 1   
     6     3     4 ar  
     7     3    22 1   
     8     4     5 1   
     9     4    13 ar  
    10     5     6 1   
    11     5    23 1   
    12     5    24 1   
    13     6    11 2   
    14     6    39 1   
    15     7    17 ar  
    16     7    25 1   
    17     8    19 ar  
    18     8    20 ar  
    19     8    26 1   
    20     9    18 ar  
    21     9    19 ar  
    22     9    27 1   
    23    10    17 ar  
    24    10    18 ar  
    25    10    20 ar  
    26    12    14 ar  
    27    12    28 1   
    28    13    14 ar  
    29    13    29 1   
    30    14    15 1   
    31    15    16 1   
    32    15    30 1   
    33    15    31 1   
    34    16    32 1   
    35    16    33 1   
    36    16    34 1   
    37    17    39 1   
    38    18    36 1   
    39    19    37 1   
    40    20    21 ar  
    41    21    38 1   
    42    35    39 1   
@<TRIPOS>SUBSTRUCTURE
     1 QTC         1 TEMP              0 ****  ****    0 ROOT
