@<TRIPOS>MOLECULE
QTC
   40    42     1     0     0
SMALL
abcg2


@<TRIPOS>ATOM
      1 N1         -17.5670     5.8560    24.1190 nb         1 QTC      -0.657000
      2 C4         -21.2810     4.6090    31.2630 ca         1 QTC       0.129000
      3 C5         -21.3230     3.9030    30.0720 ca         1 QTC      -0.085000
      4 C6         -21.9360     4.4900    28.9640 ca         1 QTC      -0.080300
      5 C7         -21.9150     3.7830    27.6270 c3         1 QTC      -0.112100
      6 C8         -20.5710     4.0400    26.9580 c          1 QTC       0.599100
      7 C10        -18.7400     5.3820    24.6110 ca         1 QTC       0.345900
      8 C13        -16.5820     8.1190    26.8710 ca         1 QTC      -0.079000
      9 C15        -18.2520     8.0280    28.6120 ca         1 QTC      -0.087000
     10 C17        -18.5580     6.6860    26.6310 ca         1 QTC      -0.014000
     11 O          -19.6210     3.2760    27.0800 o          1 QTC      -0.571100
     12 C3         -21.8210     5.8810    31.3850 ca         1 QTC      -0.099000
     13 C18        -22.4910     5.7610    29.0840 ca         1 QTC      -0.115000
     14 C2         -22.4370     6.4720    30.2830 ca         1 QTC      -0.068300
     15 C1         -22.9820     7.8740    30.3670 c3         1 QTC      -0.035100
     16 C          -21.9870     8.9090    29.8290 c3         1 QTC      -0.088100
     17 C9         -19.2610     5.7570    25.8210 ca         1 QTC      -0.091000
     18 C16        -19.0020     7.1260    27.8990 ca         1 QTC      -0.106000
     19 C14        -17.0360     8.5310    28.0980 ca         1 QTC      -0.111000
     20 C12        -17.3320     7.1890    26.1140 ca         1 QTC      -0.095000
     21 C11        -16.9010     6.7230    24.8480 ca         1 QTC       0.364900
     22 H1         -20.8860     2.9170    30.0010 ha         1 QTC       0.143000
     23 H2         -22.7270     4.1470    26.9980 hc         1 QTC       0.075700
     24 H3         -22.0190     2.7070    27.7550 hc         1 QTC       0.075700
     25 H4         -19.2750     4.6700    23.9940 h4         1 QTC       0.030100
     26 H5         -15.6500     8.4940    26.4670 ha         1 QTC       0.119000
     27 H6         -18.5980     8.3610    29.5820 ha         1 QTC       0.116000
     28 H7         -21.7680     6.4070    32.3300 ha         1 QTC       0.131000
     29 H8         -22.9700     6.2140    28.2220 ha         1 QTC       0.110000
     30 H9         -23.9110     7.9340    29.7950 hc         1 QTC       0.050700
     31 H10        -23.2260     8.1070    31.4060 hc         1 QTC       0.050700
     32 H11        -22.3970     9.9180    29.9090 hc         1 QTC       0.036700
     33 H12        -21.0500     8.8740    30.3890 hc         1 QTC       0.036700
     34 H13        -21.7550     8.7150    28.7800 hc         1 QTC       0.036700
     35 H14        -21.2950     5.8250    26.2940 hn         1 QTC       0.153000
     36 H15        -19.9290     6.7480    28.3050 ha         1 QTC       0.122000
     37 H16        -16.4630     9.2420    28.6800 ha         1 QTC       0.118000
     38 H17        -15.9650     7.0980    24.4430 h4         1 QTC       0.021100
     39 N          -20.4940     5.2110    26.2720 ns         1 QTC      -0.168000
     40 CL         -20.5200     3.8710    32.6620 cl         1 QTC      -0.206000
@<TRIPOS>BOND
     1     1     7 ar  
     2     1    21 ar  
     3     2     3 ar  
     4     2    12 ar  
     5     2    40 1   
     6     3     4 ar  
     7     3    22 1   
     8     4     5 1   
     9     4    13 ar  
    10     5     6 1   
    11     5    23 1   
    12     5    24 1   
    13     6    11 2   
    14     6    39 1   
    15     7    17 ar  
    16     7    25 1   
    17     8    19 ar  
    18     8    20 ar  
    19     8    26 1   
    20     9    18 ar  
    21     9    19 ar  
    22     9    27 1   
    23    10    17 ar  
    24    10    18 ar  
    25    10    20 ar  
    26    12    14 ar  
    27    12    28 1   
    28    13    14 ar  
    29    13    29 1   
    30    14    15 1   
    31    15    16 1   
    32    15    30 1   
    33    15    31 1   
    34    16    32 1   
    35    16    33 1   
    36    16    34 1   
    37    17    39 1   
    38    18    36 1   
    39    19    37 1   
    40    20    21 ar  
    41    21    38 1   
    42    35    39 1   
@<TRIPOS>SUBSTRUCTURE
     1 QTC         1 TEMP              0 ****  ****    0 ROOT
