@<TRIPOS>MOLECULE
QTD
   28    29     1     0     0
SMALL
No Charge or Current Charge


@<TRIPOS>ATOM
      1 C4          32.4860    30.9430    20.3410 ca         1 QTD       0.086100
      2 C5          32.0880    32.2080    20.8200 ca         1 QTD      -0.113000
      3 C6          31.0060    32.8780    20.2200 ca         1 QTD      -0.100500
      4 C7          30.3280    32.2890    19.1380 ca         1 QTD      -0.106000
      5 C8          30.7330    31.0340    18.6520 ca         1 QTD      -0.100500
      6 C10         35.1380    30.3130    22.6910 ca         1 QTD      -0.190000
      7 N           35.0080    28.6270    27.0210 n8         1 QTD      -1.000100
      8 C           34.3850    30.2360    25.0060 ca         1 QTD      -0.317500
      9 O           33.5610    30.5220    27.5310 o          1 QTD      -0.547000
     10 C1          33.0460    30.1810    24.5670 ca         1 QTD       0.027500
     11 C11         35.4330    30.3010    24.0650 ca         1 QTD       0.027500
     12 C2          32.7610    30.1940    23.1920 ca         1 QTD      -0.190000
     13 C3          33.8060    30.2720    22.2540 ca         1 QTD       0.197100
     14 C9          31.8150    30.3640    19.2510 ca         1 QTD      -0.113000
     15 O1          36.0550    30.8550    27.0100 o          1 QTD      -0.547000
     16 O2          33.5500    30.2730    20.9010 os         1 QTD      -0.248200
     17 H1          32.6150    32.6740    21.6490 ha         1 QTD       0.130500
     18 H2          30.6970    33.8530    20.5910 ha         1 QTD       0.119500
     19 H3          29.4920    32.8080    18.6740 ha         1 QTD       0.119000
     20 H4          30.2110    30.5810    17.8110 ha         1 QTD       0.119500
     21 H5          35.9440    30.3600    21.9640 ha         1 QTD       0.134500
     22 H6          34.3790    28.4630    27.8040 hn         1 QTD       0.471000
     23 H7          34.5300    28.2020    26.2310 hn         1 QTD       0.471000
     24 H8          32.2250    30.1270    25.2820 ha         1 QTD       0.138000
     25 H9          36.4720    30.3380    24.3910 ha         1 QTD       0.138000
     26 H10         31.7280    30.1410    22.8570 ha         1 QTD       0.134500
     27 H11         32.1310    29.3940    18.8750 ha         1 QTD       0.130500
     28 S           34.7620    30.2210    26.7560 sy         1 QTD       1.132600
@<TRIPOS>BOND
     1     1     2 ar  
     2     1    14 ar  
     3     1    16 1   
     4     2     3 ar  
     5     2    17 1   
     6     3     4 ar  
     7     3    18 1   
     8     4     5 ar  
     9     4    19 1   
    10     5    14 ar  
    11     5    20 1   
    12     6    11 ar  
    13     6    13 ar  
    14     6    21 1   
    15     7    22 1   
    16     7    23 1   
    17     7    28 1   
    18     8    10 ar  
    19     8    11 ar  
    20     8    28 1   
    21     9    28 2   
    22    10    12 ar  
    23    10    24 1   
    24    11    25 1   
    25    12    13 ar  
    26    12    26 1   
    27    13    16 1   
    28    14    27 1   
    29    15    28 2   
@<TRIPOS>SUBSTRUCTURE
     1 QTD         1 TEMP              0 ****  ****    0 ROOT
