@<TRIPOS>MOLECULE
QTD
   28    29     1     0     0
SMALL
bcc


@<TRIPOS>ATOM
      1 C4          32.6330    31.2960    20.3880 ca         1 QTD       0.086100
      2 C5          32.2210    32.6200    20.4160 ca         1 QTD      -0.131000
      3 C6          31.0250    32.9660    19.8030 ca         1 QTD      -0.118500
      4 C7          30.2520    31.9980    19.1730 ca         1 QTD      -0.124000
      5 C8          30.6800    30.6770    19.1540 ca         1 QTD      -0.118500
      6 C10         35.1990    30.4480    22.7720 ca         1 QTD      -0.208000
      7 N           34.8700    28.2570    26.6620 n8         1 QTD      -0.889700
      8 C           34.2720    30.1880    24.9650 ca         1 QTD      -0.317500
      9 O           33.2730    30.1720    27.3780 o          1 QTD      -0.617800
     10 C1          33.0030    30.4500    24.4770 ca         1 QTD       0.009500
     11 C11         35.3740    30.1870    24.1130 ca         1 QTD       0.009500
     12 C2          32.8200    30.7110    23.1270 ca         1 QTD      -0.208000
     13 C3          33.9200    30.7110    22.2750 ca         1 QTD       0.197100
     14 C9          31.8740    30.3170    19.7660 ca         1 QTD      -0.131000
     15 O1          35.7330    30.5340    27.1330 o          1 QTD      -0.617800
     16 O2          33.8420    30.9480    20.9480 os         1 QTD      -0.248200
     17 H1          32.8300    33.3700    20.9040 ha         1 QTD       0.148500
     18 H2          30.6980    33.9970    19.8170 ha         1 QTD       0.137500
     19 H3          29.3210    32.2740    18.6970 ha         1 QTD       0.137000
     20 H4          30.0840    29.9200    18.6630 ha         1 QTD       0.137500
     21 H5          36.0470    30.4540    22.1000 ha         1 QTD       0.152500
     22 H6          35.2890    27.9610    27.5390 hn         1 QTD       0.415800
     23 H7          34.0590    27.6840    26.4540 hn         1 QTD       0.415800
     24 H8          32.1450    30.4530    25.1340 ha         1 QTD       0.156000
     25 H9          36.3680    29.9850    24.4890 ha         1 QTD       0.156000
     26 H10         31.8230    30.9130    22.7620 ha         1 QTD       0.152500
     27 H11         32.2140    29.2900    19.7530 ha         1 QTD       0.148500
     28 S           34.5170    29.8720    26.6810 sy         1 QTD       1.274200
@<TRIPOS>BOND
     1     1     2 ar  
     2     1    14 ar  
     3     1    16 1   
     4     2     3 ar  
     5     2    17 1   
     6     3     4 ar  
     7     3    18 1   
     8     4     5 ar  
     9     4    19 1   
    10     5    14 ar  
    11     5    20 1   
    12     6    11 ar  
    13     6    13 ar  
    14     6    21 1   
    15     7    22 1   
    16     7    23 1   
    17     7    28 1   
    18     8    10 ar  
    19     8    11 ar  
    20     8    28 1   
    21     9    28 2   
    22    10    12 ar  
    23    10    24 1   
    24    11    25 1   
    25    12    13 ar  
    26    12    26 1   
    27    13    16 1   
    28    14    27 1   
    29    15    28 2   
@<TRIPOS>SUBSTRUCTURE
     1 QTD         1 TEMP              0 ****  ****    0 ROOT
