@<TRIPOS>MOLECULE
QTE
   21    21     1     0     0
SMALL
No Charge or Current Charge


@<TRIPOS>ATOM
      1 C            1.1180    22.6940    10.5840 c3         1 QTE      -0.086100
      2 C1           0.5110    22.2670    11.9470 c6         1 QTE      -0.062700
      3 C2          -0.4610    21.0660    11.7850 c6         1 QTE      -0.070900
      4 C3          -1.0660    20.6390    13.1450 c6         1 QTE      -0.072400
      5 C4           0.0430    20.3150    14.1760 c6         1 QTE      -0.074400
      6 C5           1.0150    21.5080    14.3440 c6         1 QTE      -0.072400
      7 C6           1.6200    21.9360    12.9830 c6         1 QTE      -0.070900
      8 H1           1.7730    23.5660    10.6990 hc         1 QTE       0.031700
      9 H2           1.7110    21.8860    10.1400 hc         1 QTE       0.031700
     10 H3           0.3320    22.9640     9.8680 hc         1 QTE       0.031700
     11 H4          -0.0610    23.1310    12.3130 hc         1 QTE       0.043700
     12 H5          -1.2710    21.3290    11.0900 hc         1 QTE       0.037200
     13 H6           0.0690    20.2140    11.3360 hc         1 QTE       0.037200
     14 H7          -1.7080    21.4420    13.5330 hc         1 QTE       0.037200
     15 H8          -1.7130    19.7620    13.0070 hc         1 QTE       0.037200
     16 H9          -0.4090    20.0620    15.1440 hc         1 QTE       0.037200
     17 H10          0.6020    19.4260    13.8510 hc         1 QTE       0.037200
     18 H11          1.8200    21.2390    15.0410 hc         1 QTE       0.037200
     19 H12          0.4830    22.3580    14.7950 hc         1 QTE       0.037200
     20 H13          2.2630    21.1310    12.5990 hc         1 QTE       0.037200
     21 H14          2.2700    22.8090    13.1300 hc         1 QTE       0.037200
@<TRIPOS>BOND
     1     1     2 1   
     2     1     8 1   
     3     1     9 1   
     4     1    10 1   
     5     2     3 1   
     6     2     7 1   
     7     2    11 1   
     8     3     4 1   
     9     3    12 1   
    10     3    13 1   
    11     4     5 1   
    12     4    14 1   
    13     4    15 1   
    14     5     6 1   
    15     5    16 1   
    16     5    17 1   
    17     6     7 1   
    18     6    18 1   
    19     6    19 1   
    20     7    20 1   
    21     7    21 1   
@<TRIPOS>SUBSTRUCTURE
     1 QTE         1 TEMP              0 ****  ****    0 ROOT
