@<TRIPOS>MOLECULE
QTE
   21    21     1     0     0
SMALL
abcg2


@<TRIPOS>ATOM
      1 C            1.1070    22.6770    10.6160 c3         1 QTE      -0.086100
      2 C1           0.5090    22.2640    11.9540 c6         1 QTE      -0.062700
      3 C2          -0.4480    21.0820    11.8020 c6         1 QTE      -0.070900
      4 C3          -1.0430    20.6480    13.1380 c6         1 QTE      -0.072400
      5 C4           0.0470    20.3320    14.1570 c6         1 QTE      -0.074400
      6 C5           1.0070    21.5070    14.3190 c6         1 QTE      -0.072400
      7 C6           1.5960    21.9320    12.9770 c6         1 QTE      -0.070900
      8 H1           1.7670    23.5390    10.7240 hc         1 QTE       0.031700
      9 H2           1.6930    21.8640    10.1800 hc         1 QTE       0.031700
     10 H3           0.3280    22.9420     9.8980 hc         1 QTE       0.031700
     11 H4          -0.0680    23.1120    12.3460 hc         1 QTE       0.043700
     12 H5          -1.2440    21.3350    11.0960 hc         1 QTE       0.037200
     13 H6           0.1010    20.2410    11.3600 hc         1 QTE       0.037200
     14 H7          -1.6790    21.4490    13.5290 hc         1 QTE       0.037200
     15 H8          -1.6930    19.7800    12.9970 hc         1 QTE       0.037200
     16 H9          -0.3990    20.0710    15.1210 hc         1 QTE       0.037200
     17 H10          0.6070    19.4500    13.8270 hc         1 QTE       0.037200
     18 H11          1.8070    21.2510    15.0180 hc         1 QTE       0.037200
     19 H12          0.4690    22.3520    14.7600 hc         1 QTE       0.037200
     20 H13          2.2210    21.1230    12.5800 hc         1 QTE       0.037200
     21 H14          2.2580    22.7930    13.1110 hc         1 QTE       0.037200
@<TRIPOS>BOND
     1     1     2 1   
     2     1     8 1   
     3     1     9 1   
     4     1    10 1   
     5     2     3 1   
     6     2     7 1   
     7     2    11 1   
     8     3     4 1   
     9     3    12 1   
    10     3    13 1   
    11     4     5 1   
    12     4    14 1   
    13     4    15 1   
    14     5     6 1   
    15     5    16 1   
    16     5    17 1   
    17     6     7 1   
    18     6    18 1   
    19     6    19 1   
    20     7    20 1   
    21     7    21 1   
@<TRIPOS>SUBSTRUCTURE
     1 QTE         1 TEMP              0 ****  ****    0 ROOT
