@<TRIPOS>MOLECULE
QTF
   41    45     1     0     0
SMALL
abcg2


@<TRIPOS>ATOM
      1 C18        -44.3920   -29.3790     5.9920 ca         1 QTF       0.183900
      2 C16        -46.5990   -29.5780     6.1000 ca         1 QTF       0.192500
      3 C13        -49.1100   -28.2190     3.7710 ca         1 QTF      -0.038000
      4 C12        -50.4820   -28.2510     3.9820 ca         1 QTF      -0.172000
      5 C11        -50.9850   -28.8750     5.1180 ca         1 QTF       0.171000
      6 C10        -50.1880   -29.4620     6.0770 ca         1 QTF      -0.186000
      7 C20        -44.1940   -27.9370     2.2630 c5         1 QTF       0.228800
      8 C02        -46.5630   -28.1340    -0.7300 c          1 QTF       0.721000
      9 C03        -45.7560   -28.4610     0.5530 c5         1 QTF       0.061000
     10 C04        -46.5350   -28.3630     1.8510 c5         1 QTF       0.193800
     11 C06        -45.5940   -28.6540     4.1460 ca         1 QTF       0.442900
     12 C07        -46.7960   -28.9620     4.8410 cp         1 QTF      -0.239000
     13 C08        -48.2400   -28.8200     4.6870 cp         1 QTF      -0.041000
     14 C09        -48.8180   -29.4140     5.8460 ca         1 QTF      -0.008200
     15 C21        -44.5370   -27.5740     0.8190 cy         1 QTF      -0.094000
     16 C22        -44.6700   -26.0420     0.5820 cy         1 QTF      -0.070900
     17 C23        -43.2370   -26.0460    -0.0050 cy         1 QTF      -0.101400
     18 C24        -43.3370   -27.5850    -0.1540 cy         1 QTF      -0.070900
     19 F14        -52.3330   -28.8910     5.3010 f          1 QTF      -0.197000
     20 F25        -45.2610   -29.7940     0.4610 f          1 QTF      -0.280000
     21 N05        -45.5030   -28.1960     2.8800 nh         1 QTF      -0.747300
     22 N15        -47.8080   -29.8720     6.6620 na         1 QTF      -0.338300
     23 N17        -45.4290   -29.8150     6.7020 nb         1 QTF      -0.278000
     24 N19        -44.4090   -28.8300     4.7850 nb         1 QTF      -0.305000
     25 O01        -46.2500   -28.7570    -1.7670 o          1 QTF      -0.702000
     26 O26        -47.4380   -27.2430    -0.6090 o          1 QTF      -0.702000
     27 H181       -43.4130   -29.4960     6.4470 h5         1 QTF       0.033100
     28 H131       -48.7430   -27.7110     2.8960 ha         1 QTF       0.145000
     29 H121       -51.1630   -27.7900     3.2800 ha         1 QTF       0.133000
     30 H101       -50.6090   -29.9170     6.9630 ha         1 QTF       0.125000
     31 H201       -43.6680   -27.1390     2.7850 h1         1 QTF       0.054700
     32 H202       -43.5710   -28.8340     2.3040 h1         1 QTF       0.054700
     33 H041       -47.1320   -29.2560     2.0280 h1         1 QTF       0.076200
     34 H042       -47.1840   -27.4940     1.7870 h1         1 QTF       0.076200
     35 H221       -45.4230   -25.8130    -0.1690 hc         1 QTF       0.063950
     36 H222       -44.8540   -25.4350     1.4690 hc         1 QTF       0.063950
     37 H232       -43.0780   -25.4690    -0.9150 hc         1 QTF       0.032700
     38 H231       -42.4890   -25.7550     0.7320 hc         1 QTF       0.032700
     39 H242       -43.6430   -27.8830    -1.1560 hc         1 QTF       0.063950
     40 H241       -42.4750   -28.1780     0.1510 hc         1 QTF       0.063950
     41 H151       -47.9280   -30.2820     7.5750 hn         1 QTF       0.357000
@<TRIPOS>BOND
     1     1    23 ar  
     2     1    24 ar  
     3     1    27 1   
     4     2    12 ar  
     5     2    22 1   
     6     2    23 ar  
     7     3     4 ar  
     8     3    13 ar  
     9     3    28 1   
    10     4     5 ar  
    11     4    29 1   
    12     5     6 ar  
    13     5    19 1   
    14     6    14 ar  
    15     6    30 1   
    16     7    15 1   
    17     7    21 1   
    18     7    31 1   
    19     7    32 1   
    20     8     9 1   
    21     8    25 1   
    22     8    26 1   
    23     9    10 1   
    24     9    15 1   
    25     9    20 1   
    26    10    21 1   
    27    10    33 1   
    28    10    34 1   
    29    11    12 ar  
    30    11    21 1   
    31    11    24 ar  
    32    12    13 1   
    33    13    14 ar  
    34    14    22 1   
    35    15    16 1   
    36    15    18 1   
    37    16    17 1   
    38    16    35 1   
    39    16    36 1   
    40    17    18 1   
    41    17    37 1   
    42    17    38 1   
    43    18    39 1   
    44    18    40 1   
    45    22    41 1   
@<TRIPOS>SUBSTRUCTURE
     1 QTF         1 TEMP              0 ****  ****    0 ROOT
