@<TRIPOS>MOLECULE
QTF
   41    45     1     0     0
SMALL
No Charge or Current Charge


@<TRIPOS>ATOM
      1 C18        -44.4590   -30.3460     5.7080 ca         1 QTF       0.183900
      2 C16        -46.6550   -29.9380     6.1160 ca         1 QTF       0.192500
      3 C13        -48.6890   -27.7430     3.9190 ca         1 QTF      -0.038000
      4 C12        -50.0430   -27.3850     4.1180 ca         1 QTF      -0.172000
      5 C11        -50.7710   -27.9050     5.2140 ca         1 QTF       0.171000
      6 C10        -50.1620   -28.7760     6.1390 ca         1 QTF      -0.186000
      7 C20        -44.3890   -27.7380     2.3430 c5         1 QTF       0.228800
      8 C02        -46.0250   -28.9840    -0.8580 c          1 QTF       0.721000
      9 C03        -45.2750   -28.9270     0.5330 c5         1 QTF       0.061000
     10 C04        -46.3060   -29.0490     1.7120 c5         1 QTF       0.193800
     11 C06        -45.5880   -29.0860     4.1310 ca         1 QTF       0.442900
     12 C07        -46.7420   -29.1910     4.9390 cp         1 QTF      -0.239000
     13 C08        -48.0950   -28.6470     4.8240 cp         1 QTF      -0.041000
     14 C09        -48.8280   -29.1160     5.9080 ca         1 QTF      -0.008200
     15 C21        -44.6290   -27.5240     0.8230 cy         1 QTF      -0.094000
     16 C22        -45.3710   -26.2040     0.3800 cy         1 QTF      -0.070900
     17 C23        -43.9570   -25.5440     0.3160 cy         1 QTF      -0.101400
     18 C24        -43.4510   -26.9710    -0.0650 cy         1 QTF      -0.070900
     19 F14        -52.0600   -27.5410     5.3900 f          1 QTF      -0.197000
     20 F25        -44.3280   -29.9730     0.5920 f          1 QTF      -0.280000
     21 N05        -45.5590   -28.4730     2.8640 nh         1 QTF      -0.747300
     22 N15        -47.9430   -29.8930     6.6640 na         1 QTF      -0.338300
     23 N17        -45.5210   -30.5260     6.5240 nb         1 QTF      -0.278000
     24 N19        -44.4360   -29.6670     4.5370 nb         1 QTF      -0.305000
     25 O01        -45.3660   -29.0540    -1.8900 o          1 QTF      -0.702000
     26 O26        -47.2500   -29.0050    -0.8990 o          1 QTF      -0.702000
     27 H181       -43.5240   -30.8090     6.0190 h5         1 QTF       0.033100
     28 H131       -48.1190   -27.3100     3.1030 ha         1 QTF       0.145000
     29 H121       -50.5260   -26.6950     3.4310 ha         1 QTF       0.133000
     30 H101       -50.7080   -29.1550     6.9990 ha         1 QTF       0.125000
     31 H201       -44.2610   -26.7900     2.8830 h1         1 QTF       0.054700
     32 H202       -43.4670   -28.3130     2.5120 h1         1 QTF       0.054700
     33 H041       -46.5950   -30.0960     1.8800 h1         1 QTF       0.076200
     34 H042       -47.2200   -28.4760     1.5130 h1         1 QTF       0.076200
     35 H221       -45.8850   -26.2550    -0.5880 hc         1 QTF       0.063950
     36 H222       -46.0650   -25.7770     1.1130 hc         1 QTF       0.063950
     37 H232       -43.8250   -24.7700    -0.4470 hc         1 QTF       0.032700
     38 H231       -43.5820   -25.1610     1.2720 hc         1 QTF       0.032700
     39 H242       -43.5260   -27.2050    -1.1340 hc         1 QTF       0.063950
     40 H241       -42.4400   -27.2250     0.2700 hc         1 QTF       0.063950
     41 H151       -48.1970   -30.3670     7.5220 hn         1 QTF       0.357000
@<TRIPOS>BOND
     1     1    23 ar  
     2     1    24 ar  
     3     1    27 1   
     4     2    12 ar  
     5     2    22 1   
     6     2    23 ar  
     7     3     4 ar  
     8     3    13 ar  
     9     3    28 1   
    10     4     5 ar  
    11     4    29 1   
    12     5     6 ar  
    13     5    19 1   
    14     6    14 ar  
    15     6    30 1   
    16     7    15 1   
    17     7    21 1   
    18     7    31 1   
    19     7    32 1   
    20     8     9 1   
    21     8    25 1   
    22     8    26 1   
    23     9    10 1   
    24     9    15 1   
    25     9    20 1   
    26    10    21 1   
    27    10    33 1   
    28    10    34 1   
    29    11    12 ar  
    30    11    21 1   
    31    11    24 ar  
    32    12    13 1   
    33    13    14 ar  
    34    14    22 1   
    35    15    16 1   
    36    15    18 1   
    37    16    17 1   
    38    16    35 1   
    39    16    36 1   
    40    17    18 1   
    41    17    37 1   
    42    17    38 1   
    43    18    39 1   
    44    18    40 1   
    45    22    41 1   
@<TRIPOS>SUBSTRUCTURE
     1 QTF         1 TEMP              0 ****  ****    0 ROOT
