@<TRIPOS>MOLECULE
QTG
   29    29     1     0     0
SMALL
No Charge or Current Charge


@<TRIPOS>ATOM
      1 C4          36.3700    31.4660    24.9860 ca         1 QTG       0.013000
      2 C5          36.9510    31.8970    23.7850 ca         1 QTG      -0.178000
      3 C6          36.2460    31.7650    22.5860 ca         1 QTG       0.228000
      4 C7          34.9630    31.2080    22.5780 ca         1 QTG      -0.180000
      5 C8          34.3600    30.7650    23.7720 ca         1 QTG       0.045700
      6 N           34.4940    28.6950    26.5480 n7         1 QTG      -0.913300
      7 C           37.8460    27.3400    25.1580 c3         1 QTG      -0.090100
      8 O           32.9740    30.6310    26.6380 o          1 QTG      -0.537000
      9 C1          36.8670    28.0650    26.1030 c3         1 QTG      -0.089400
     10 C2          35.4030    28.0040    25.6140 c3         1 QTG       0.228800
     11 C3          35.0780    30.8910    24.9960 ca         1 QTG      -0.316500
     12 C9          32.9590    30.1640    23.6770 c3         1 QTG      -0.083800
     13 F           36.8050    32.1810    21.4290 f          1 QTG      -0.169000
     14 O1          35.2950    30.7740    27.6950 o          1 QTG      -0.537000
     15 S           34.4120    30.3650    26.6000 sy         1 QTG       1.172600
     16 H1          36.9360    31.5830    25.9100 ha         1 QTG       0.149000
     17 H2          37.9460    32.3340    23.7830 ha         1 QTG       0.140000
     18 H3          34.4360    31.1200    21.6320 ha         1 QTG       0.133000
     19 H4          33.5290    28.4940    26.2910 hn         1 QTG       0.496000
     20 H5          38.8690    27.4020    25.5470 hc         1 QTG       0.034700
     21 H6          37.5790    26.2810    25.0600 hc         1 QTG       0.034700
     22 H7          37.8300    27.7960    24.1610 hc         1 QTG       0.034700
     23 H8          37.1890    29.1060    26.2080 hc         1 QTG       0.059700
     24 H9          36.9290    27.6130    27.1000 hc         1 QTG       0.059700
     25 H10         35.1210    26.9440    25.5610 h1         1 QTG       0.041200
     26 H11         35.3290    28.3960    24.5920 h1         1 QTG       0.041200
     27 H12         32.8940    29.1950    24.1810 hc         1 QTG       0.060367
     28 H13         32.2110    30.8350    24.1150 hc         1 QTG       0.060367
     29 H14         32.6630    29.9950    22.6350 hc         1 QTG       0.060367
@<TRIPOS>BOND
     1     1     2 ar  
     2     1    11 ar  
     3     1    16 1   
     4     2     3 ar  
     5     2    17 1   
     6     3     4 ar  
     7     3    13 1   
     8     4     5 ar  
     9     4    18 1   
    10     5    11 ar  
    11     5    12 1   
    12     6    10 1   
    13     6    15 1   
    14     6    19 1   
    15     7     9 1   
    16     7    20 1   
    17     7    21 1   
    18     7    22 1   
    19     8    15 2   
    20     9    10 1   
    21     9    23 1   
    22     9    24 1   
    23    10    25 1   
    24    10    26 1   
    25    11    15 1   
    26    12    27 1   
    27    12    28 1   
    28    12    29 1   
    29    14    15 2   
@<TRIPOS>SUBSTRUCTURE
     1 QTG         1 TEMP              0 ****  ****    0 ROOT
