@<TRIPOS>MOLECULE
QTG
   29    29     1     0     0
SMALL
abcg2


@<TRIPOS>ATOM
      1 C4          36.2540    31.9410    24.4600 ca         1 QTG       0.013000
      2 C5          36.5110    32.5460    23.2420 ca         1 QTG      -0.178000
      3 C6          35.6060    32.3470    22.2210 ca         1 QTG       0.228000
      4 C7          34.4750    31.5680    22.3760 ca         1 QTG      -0.180000
      5 C8          34.2050    30.9550    23.5940 ca         1 QTG       0.045700
      6 N           34.7860    28.8400    26.0820 n7         1 QTG      -0.913300
      7 C           37.8600    26.5670    26.0920 c3         1 QTG      -0.090100
      8 O           33.5560    30.8840    26.7480 o          1 QTG      -0.537000
      9 C1          36.7170    27.3920    26.6650 c3         1 QTG      -0.089400
     10 C2          35.9300    28.0910    25.5680 c3         1 QTG       0.228800
     11 C3          35.1190    31.1600    24.6380 ca         1 QTG      -0.316500
     12 C9          32.9840    30.0900    23.7040 c3         1 QTG      -0.083800
     13 F           35.8280    32.9230    21.0360 f          1 QTG      -0.169000
     14 O1          36.0460    30.7600    27.0370 o          1 QTG      -0.537000
     15 S           34.8570    30.4590    26.2550 sy         1 QTG       1.172600
     16 H1          36.9520    32.0880    25.2720 ha         1 QTG       0.149000
     17 H2          37.3910    33.1580    23.0990 ha         1 QTG       0.140000
     18 H3          33.7980    31.4360    21.5410 ha         1 QTG       0.133000
     19 H4          33.8660    28.4790    25.8670 hn         1 QTG       0.496000
     20 H5          38.4260    26.0780    26.8840 hc         1 QTG       0.034700
     21 H6          37.4920    25.7880    25.4210 hc         1 QTG       0.034700
     22 H7          38.5550    27.1890    25.5260 hc         1 QTG       0.034700
     23 H8          37.1060    28.1390    27.3590 hc         1 QTG       0.059700
     24 H9          36.0400    26.7520    27.2370 hc         1 QTG       0.059700
     25 H10         35.5410    27.3610    24.8570 h1         1 QTG       0.041200
     26 H11         36.5900    28.7480    24.9910 h1         1 QTG       0.041200
     27 H12         33.2550    29.0330    23.7300 hc         1 QTG       0.060367
     28 H13         32.3990    30.3060    24.5950 hc         1 QTG       0.060367
     29 H14         32.3380    30.2310    22.8410 hc         1 QTG       0.060367
@<TRIPOS>BOND
     1     1     2 ar  
     2     1    11 ar  
     3     1    16 1   
     4     2     3 ar  
     5     2    17 1   
     6     3     4 ar  
     7     3    13 1   
     8     4     5 ar  
     9     4    18 1   
    10     5    11 ar  
    11     5    12 1   
    12     6    10 1   
    13     6    15 1   
    14     6    19 1   
    15     7     9 1   
    16     7    20 1   
    17     7    21 1   
    18     7    22 1   
    19     8    15 2   
    20     9    10 1   
    21     9    23 1   
    22     9    24 1   
    23    10    25 1   
    24    10    26 1   
    25    11    15 1   
    26    12    27 1   
    27    12    28 1   
    28    12    29 1   
    29    14    15 2   
@<TRIPOS>SUBSTRUCTURE
     1 QTG         1 TEMP              0 ****  ****    0 ROOT
