@<TRIPOS>MOLECULE
QTH
   47    50     1     0     0
SMALL
No Charge or Current Charge


@<TRIPOS>ATOM
      1 CAP        -21.3590    14.2610    10.5800 c5         1 QTH       0.050100
      2 CAN        -22.1180    14.2800    11.9300 c5         1 QTH      -0.093400
      3 CAO        -23.5740    14.0470    11.4460 c5         1 QTH      -0.093400
      4 CAQ        -23.3970    12.8690    10.4470 c5         1 QTH       0.050100
      5 NAW        -22.0330    13.1240     9.9120 nh         1 QTH      -0.228000
      6 CAV        -21.8320    12.9240     8.5420 cc         1 QTH       0.214000
      7 CAK        -22.4940    11.8670     7.8590 cc         1 QTH      -0.234000
      8 CAM        -22.3140    11.6240     6.5120 cd         1 QTH      -0.012500
      9 CAJ        -20.9230    13.7010     7.7700 cc         1 QTH      -0.234000
     10 CAL        -20.7230    13.4830     6.4200 cd         1 QTH      -0.012500
     11 NAX        -21.4420    12.4530     5.7690 na         1 QTH       0.035000
     12 CAR        -21.2610    12.2120     4.3240 c3         1 QTH       0.104900
     13 CAS        -20.5840    10.8800     3.9980 ca         1 QTH      -0.166300
     14 CAG        -19.4550    10.4460     4.7210 ca         1 QTH      -0.086500
     15 CAI        -18.8430     9.2200     4.4130 ca         1 QTH      -0.098500
     16 CAF        -21.0820    10.0730     2.9590 ca         1 QTH      -0.086500
     17 CAH        -20.4660     8.8480     2.6520 ca         1 QTH      -0.098500
     18 CAU        -19.3340     8.3930     3.3730 cp         1 QTH       0.019000
     19 CAT        -18.6790     7.0860     3.0460 cp         1 QTH      -0.069000
     20 CAD        -18.1120     6.2750     4.0630 ca         1 QTH      -0.091000
     21 CAB        -17.4980     5.0480     3.7560 ca         1 QTH      -0.106500
     22 CAA        -17.4370     4.6050     2.4250 ca         1 QTH      -0.087000
     23 CAC        -17.9910     5.3900     1.4020 ca         1 QTH      -0.106500
     24 CAE        -18.6060     6.6160     1.7090 ca         1 QTH      -0.091000
     25 H1         -20.2820    14.0920    10.7110 h1         1 QTH       0.071450
     26 H2         -21.5110    15.2010    10.0320 h1         1 QTH       0.071450
     27 H3         -21.7790    13.4750    12.5940 hc         1 QTH       0.077450
     28 H4         -21.9930    15.2260    12.4690 hc         1 QTH       0.077450
     29 H5         -23.9710    14.9360    10.9410 hc         1 QTH       0.077450
     30 H6         -24.2630    13.8020    12.2630 hc         1 QTH       0.077450
     31 H7         -24.1770    12.8850     9.6740 h1         1 QTH       0.071450
     32 H8         -23.4310    11.8980    10.9590 h1         1 QTH       0.071450
     33 H9         -23.1560    11.2130     8.4160 ha         1 QTH       0.161000
     34 H10        -22.8060    10.8220     5.9720 h4         1 QTH       0.172000
     35 H11        -20.3570    14.4960     8.2400 ha         1 QTH       0.161000
     36 H12        -20.0370    14.0660     5.8150 h4         1 QTH       0.172000
     37 H13        -20.6660    13.0270     3.8930 h1         1 QTH       0.086200
     38 H14        -22.2490    12.2510     3.8490 h1         1 QTH       0.086200
     39 H15        -19.0450    11.0580     5.5220 ha         1 QTH       0.113000
     40 H16        -17.9660     8.9150     4.9790 ha         1 QTH       0.132500
     41 H17        -21.9520    10.3900     2.3860 ha         1 QTH       0.113000
     42 H18        -20.8820     8.2370     1.8540 ha         1 QTH       0.132500
     43 H19        -18.1600     6.5920     5.1020 ha         1 QTH       0.112500
     44 H20        -17.0720     4.4400     4.5520 ha         1 QTH       0.123000
     45 H21        -16.9610     3.6550     2.1880 ha         1 QTH       0.125000
     46 H22        -17.9420     5.0500     0.3700 ha         1 QTH       0.123000
     47 H23        -19.0160     7.2140     0.8990 ha         1 QTH       0.112500
@<TRIPOS>BOND
     1     1     2 1   
     2     1     5 1   
     3     1    25 1   
     4     1    26 1   
     5     2     3 1   
     6     2    27 1   
     7     2    28 1   
     8     3     4 1   
     9     3    29 1   
    10     3    30 1   
    11     4     5 1   
    12     4    31 1   
    13     4    32 1   
    14     5     6 2   
    15     6     7 1   
    16     6     9 1   
    17     7     8 2   
    18     7    33 1   
    19     8    11 1   
    20     8    34 1   
    21     9    10 2   
    22     9    35 1   
    23    10    11 1   
    24    10    36 1   
    25    11    12 1   
    26    12    13 1   
    27    12    37 1   
    28    12    38 1   
    29    13    14 ar  
    30    13    16 ar  
    31    14    15 ar  
    32    14    39 1   
    33    15    18 ar  
    34    15    40 1   
    35    16    17 ar  
    36    16    41 1   
    37    17    18 ar  
    38    17    42 1   
    39    18    19 1   
    40    19    20 ar  
    41    19    24 ar  
    42    20    21 ar  
    43    20    43 1   
    44    21    22 ar  
    45    21    44 1   
    46    22    23 ar  
    47    22    45 1   
    48    23    24 ar  
    49    23    46 1   
    50    24    47 1   
@<TRIPOS>SUBSTRUCTURE
     1 QTH         1 TEMP              0 ****  ****    0 ROOT
