@<TRIPOS>MOLECULE
QTH
   47    50     1     0     0
SMALL
abcg2


@<TRIPOS>ATOM
      1 CAP        -21.4870    14.2080    10.4040 c5         1 QTH       0.050100
      2 CAN        -21.9560    13.8420    11.8060 c5         1 QTH      -0.093400
      3 CAO        -23.3740    13.3320    11.5790 c5         1 QTH      -0.093400
      4 CAQ        -23.2590    12.5540    10.2760 c5         1 QTH       0.050100
      5 NAW        -22.2070    13.2640     9.5500 nh         1 QTH      -0.228000
      6 CAV        -21.9370    13.0760     8.2690 cc         1 QTH       0.214000
      7 CAK        -22.6230    12.1030     7.4920 cc         1 QTH      -0.234000
      8 CAM        -22.3140    11.9350     6.1800 cd         1 QTH      -0.012500
      9 CAJ        -20.9470    13.8330     7.5890 cc         1 QTH      -0.234000
     10 CAL        -20.6980    13.6070     6.2710 cd         1 QTH      -0.012500
     11 NAX        -21.3660    12.6740     5.5660 na         1 QTH       0.035000
     12 CAR        -21.0620    12.4280     4.1510 c3         1 QTH       0.104900
     13 CAS        -20.4720    11.0620     3.9360 ca         1 QTH      -0.166300
     14 CAG        -19.2970    10.6830     4.5800 ca         1 QTH      -0.086500
     15 CAI        -18.7560     9.4270     4.3710 ca         1 QTH      -0.098500
     16 CAF        -21.0900    10.1580     3.0820 ca         1 QTH      -0.086500
     17 CAH        -20.5430     8.9010     2.8660 ca         1 QTH      -0.098500
     18 CAU        -19.3680     8.5140     3.5080 cp         1 QTH       0.019000
     19 CAT        -18.7860     7.1760     3.2860 cp         1 QTH      -0.069000
     20 CAD        -18.2100     6.4660     4.3410 ca         1 QTH      -0.091000
     21 CAB        -17.6620     5.2080     4.1360 ca         1 QTH      -0.106500
     22 CAA        -17.6770     4.6380     2.8690 ca         1 QTH      -0.087000
     23 CAC        -18.2460     5.3350     1.8110 ca         1 QTH      -0.106500
     24 CAE        -18.7970     6.5920     2.0180 ca         1 QTH      -0.091000
     25 H1         -20.4090    14.0980    10.2830 h1         1 QTH       0.071450
     26 H2         -21.7580    15.2350    10.1430 h1         1 QTH       0.071450
     27 H3         -21.3280    13.0480    12.2160 hc         1 QTH       0.077450
     28 H4         -21.9080    14.6920    12.4850 hc         1 QTH       0.077450
     29 H5         -24.0660    14.1670    11.4570 hc         1 QTH       0.077450
     30 H6         -23.7420    12.7080    12.3920 hc         1 QTH       0.077450
     31 H7         -24.1900    12.5480     9.7080 h1         1 QTH       0.071450
     32 H8         -22.9590    11.5170    10.4510 h1         1 QTH       0.071450
     33 H9         -23.3910    11.4760     7.9190 ha         1 QTH       0.161000
     34 H10        -22.8180    11.1980     5.5720 h4         1 QTH       0.172000
     35 H11        -20.3790    14.6050     8.0870 ha         1 QTH       0.161000
     36 H12        -19.9530    14.1750     5.7340 h4         1 QTH       0.172000
     37 H13        -20.3720    13.2080     3.8310 h1         1 QTH       0.086200
     38 H14        -21.9800    12.5500     3.5760 h1         1 QTH       0.086200
     39 H15        -18.7900    11.3710     5.2450 ha         1 QTH       0.113000
     40 H16        -17.8310     9.1610     4.8670 ha         1 QTH       0.132500
     41 H17        -22.0140    10.4310     2.5860 ha         1 QTH       0.113000
     42 H18        -21.0540     8.2100     2.2080 ha         1 QTH       0.132500
     43 H19        -18.2080     6.8900     5.3380 ha         1 QTH       0.112500
     44 H20        -17.2270     4.6710     4.9680 ha         1 QTH       0.123000
     45 H21        -17.2470     3.6590     2.7070 ha         1 QTH       0.125000
     46 H22        -18.2540     4.9040     0.8190 ha         1 QTH       0.123000
     47 H23        -19.2200     7.1300     1.1790 ha         1 QTH       0.112500
@<TRIPOS>BOND
     1     1     2 1   
     2     1     5 1   
     3     1    25 1   
     4     1    26 1   
     5     2     3 1   
     6     2    27 1   
     7     2    28 1   
     8     3     4 1   
     9     3    29 1   
    10     3    30 1   
    11     4     5 1   
    12     4    31 1   
    13     4    32 1   
    14     5     6 2   
    15     6     7 1   
    16     6     9 1   
    17     7     8 2   
    18     7    33 1   
    19     8    11 1   
    20     8    34 1   
    21     9    10 2   
    22     9    35 1   
    23    10    11 1   
    24    10    36 1   
    25    11    12 1   
    26    12    13 1   
    27    12    37 1   
    28    12    38 1   
    29    13    14 ar  
    30    13    16 ar  
    31    14    15 ar  
    32    14    39 1   
    33    15    18 ar  
    34    15    40 1   
    35    16    17 ar  
    36    16    41 1   
    37    17    18 ar  
    38    17    42 1   
    39    18    19 1   
    40    19    20 ar  
    41    19    24 ar  
    42    20    21 ar  
    43    20    43 1   
    44    21    22 ar  
    45    21    44 1   
    46    22    23 ar  
    47    22    45 1   
    48    23    24 ar  
    49    23    46 1   
    50    24    47 1   
@<TRIPOS>SUBSTRUCTURE
     1 QTH         1 TEMP              0 ****  ****    0 ROOT
