@<TRIPOS>MOLECULE
QTI
   54    57     1     0     0
SMALL
No Charge or Current Charge


@<TRIPOS>ATOM
      1 C10        -24.3300    22.5910    19.1870 ca         1 QTI       0.069000
      2 C15        -25.9200    24.4330    16.5820 c6         1 QTI       0.195800
      3 C20        -27.3430    27.4280    11.5370 cc         1 QTI      -0.131000
      4 C21        -27.2200    27.1060    10.1620 cc         1 QTI      -0.124000
      5 C22        -27.4640    25.7820     9.8620 cd         1 QTI      -0.157000
      6 C24        -27.3750    25.1400     8.5150 ca         1 QTI      -0.042000
      7 C26        -26.8230    25.3430     6.1230 ca         1 QTI      -0.123000
      8 C28        -27.6270    23.2270     6.9800 ca         1 QTI      -0.145000
      9 N01        -26.8900    20.5570    20.5470 n8         1 QTI      -1.000100
     10 S02        -25.2860    20.5850    20.8570 sy         1 QTI       1.164600
     11 O03        -24.7140    19.6790    19.8640 o          1 QTI      -0.530000
     12 O04        -25.1710    20.3670    22.3000 o          1 QTI      -0.530000
     13 C05        -24.8820    22.2790    20.4470 ca         1 QTI      -0.339500
     14 C06        -25.1100    23.3000    21.3920 ca         1 QTI       0.032000
     15 C07        -24.7930    24.6310    21.0740 ca         1 QTI      -0.146000
     16 C08        -24.2440    24.9490    19.8200 ca         1 QTI       0.033000
     17 C09        -24.0110    23.9290    18.8780 ca         1 QTI      -0.325500
     18 S11        -23.3080    24.3460    17.2770 sy         1 QTI       1.185600
     19 O12        -22.2940    25.3830    17.5000 o          1 QTI      -0.534500
     20 O13        -23.0220    23.1180    16.5250 o          1 QTI      -0.534500
     21 N14        -24.6000    25.1260    16.4940 n3         1 QTI      -0.735500
     22 C16        -27.0680    25.2550    15.9160 c6         1 QTI       0.164300
     23 N17        -26.7630    25.5930    14.4940 n3         1 QTI      -0.730600
     24 C18        -27.8620    26.3160    13.8200 c3         1 QTI       0.241100
     25 C19        -27.6700    26.3590    12.3270 cd         1 QTI      -0.217300
     26 S23        -27.8410    24.8850    11.3620 ss         1 QTI       0.250000
     27 C25        -26.9220    25.9040     7.4090 ca         1 QTI      -0.076000
     28 C27        -27.1740    24.0050     5.9050 ca         1 QTI      -0.080000
     29 C29        -27.7270    23.7810     8.2690 ca         1 QTI       0.167000
     30 F30        -28.1860    22.9720     9.2490 f          1 QTI      -0.181000
     31 C31        -25.4520    26.3090    14.4140 c6         1 QTI       0.164300
     32 C32        -24.2980    25.5010    15.0830 c6         1 QTI       0.195800
     33 H1         -24.1490    21.8010    18.4550 ha         1 QTI       0.152000
     34 H2         -26.2080    24.2530    17.6270 h1         1 QTI       0.059700
     35 H3         -25.8660    23.4510    16.0900 h1         1 QTI       0.059700
     36 H4         -27.1790    28.4350    11.9130 ha         1 QTI       0.134000
     37 H5         -26.9580    27.8710     9.4390 ha         1 QTI       0.135000
     38 H6         -26.4700    25.9520     5.2920 ha         1 QTI       0.121000
     39 H7         -27.9050    22.1890     6.8180 ha         1 QTI       0.134000
     40 H8         -26.9990    21.3550    19.9270 hn         1 QTI       0.476500
     41 H9         -26.9490    19.7540    19.9250 hn         1 QTI       0.476500
     42 H10        -25.5340    23.0690    22.3700 ha         1 QTI       0.140000
     43 H11        -24.9730    25.4200    21.8020 ha         1 QTI       0.128000
     44 H12        -24.0050    25.9860    19.5840 ha         1 QTI       0.139000
     45 H13        -27.2240    26.1730    16.5000 h1         1 QTI       0.050450
     46 H14        -27.9970    24.6710    15.9790 h1         1 QTI       0.050450
     47 H16        -27.9470    27.3410    14.2070 h1         1 QTI       0.049200
     48 H17        -28.8200    25.8160    14.0210 h1         1 QTI       0.049200
     49 H18        -26.6320    26.9430     7.5300 ha         1 QTI       0.121000
     50 H19        -27.0980    23.5720     4.9080 ha         1 QTI       0.121000
     51 H20        -25.1770    26.5020    13.3670 h1         1 QTI       0.050450
     52 H21        -25.5240    27.2880    14.9120 h1         1 QTI       0.050450
     53 H22        -24.1180    24.5990    14.4800 h1         1 QTI       0.059700
     54 H23        -23.3810    26.1080    15.0330 h1         1 QTI       0.059700
@<TRIPOS>BOND
     1     1    13 ar  
     2     1    17 ar  
     3     1    33 1   
     4     2    21 1   
     5     2    22 1   
     6     2    34 1   
     7     2    35 1   
     8     3     4 1   
     9     3    25 2   
    10     3    36 1   
    11     4     5 2   
    12     4    37 1   
    13     5     6 1   
    14     5    26 1   
    15     6    27 ar  
    16     6    29 ar  
    17     7    27 ar  
    18     7    28 ar  
    19     7    38 1   
    20     8    28 ar  
    21     8    29 ar  
    22     8    39 1   
    23     9    10 1   
    24     9    40 1   
    25     9    41 1   
    26    10    11 2   
    27    10    12 2   
    28    10    13 1   
    29    13    14 ar  
    30    14    15 ar  
    31    14    42 1   
    32    15    16 ar  
    33    15    43 1   
    34    16    17 ar  
    35    16    44 1   
    36    17    18 1   
    37    18    19 2   
    38    18    20 2   
    39    18    21 1   
    40    21    32 1   
    41    22    23 1   
    42    22    45 1   
    43    22    46 1   
    44    23    24 1   
    45    23    31 1   
    46    24    25 1   
    47    24    47 1   
    48    24    48 1   
    49    25    26 1   
    50    27    49 1   
    51    28    50 1   
    52    29    30 1   
    53    31    32 1   
    54    31    51 1   
    55    31    52 1   
    56    32    53 1   
    57    32    54 1   
@<TRIPOS>SUBSTRUCTURE
     1 QTI         1 TEMP              0 ****  ****    0 ROOT
