@<TRIPOS>MOLECULE
QTI
   54    57     1     0     0
SMALL
abcg2


@<TRIPOS>ATOM
      1 C10        -24.1530    23.0090    18.0120 ca         1 QTI       0.069000
      2 C15        -26.1180    26.7180    17.4100 c6         1 QTI       0.195800
      3 C20        -26.3160    27.3840    11.3810 cc         1 QTI      -0.131000
      4 C21        -26.5850    26.4300    10.3650 cc         1 QTI      -0.124000
      5 C22        -27.3320    25.3630    10.8010 cd         1 QTI      -0.157000
      6 C24        -27.7060    24.1820    10.0210 ca         1 QTI      -0.042000
      7 C26        -27.2070    22.6210     8.2160 ca         1 QTI      -0.123000
      8 C28        -29.2360    22.3520     9.4770 ca         1 QTI      -0.145000
      9 N01        -24.9630    20.5660    15.6390 n8         1 QTI      -1.000100
     10 S02        -24.2130    20.4370    17.0890 sy         1 QTI       1.164600
     11 O03        -22.8080    20.6460    16.8430 o          1 QTI      -0.530000
     12 O04        -24.6700    19.2040    17.6800 o          1 QTI      -0.530000
     13 C05        -24.7900    21.7790    18.1070 ca         1 QTI      -0.339500
     14 C06        -25.8890    21.5940    18.9390 ca         1 QTI       0.032000
     15 C07        -26.3600    22.6640    19.6910 ca         1 QTI      -0.146000
     16 C08        -25.7500    23.9090    19.5980 ca         1 QTI       0.033000
     17 C09        -24.6490    24.0700    18.7610 ca         1 QTI      -0.325500
     18 S11        -23.9390    25.6820    18.5350 sy         1 QTI       1.185600
     19 O12        -24.2810    26.4880    19.6800 o          1 QTI      -0.534500
     20 O13        -22.5540    25.5090    18.1720 o          1 QTI      -0.534500
     21 N14        -24.7070    26.3260    17.2350 n3         1 QTI      -0.735500
     22 C16        -26.5180    27.6440    16.2750 c6         1 QTI       0.164300
     23 N17        -26.3080    26.9940    14.9870 n3         1 QTI      -0.730600
     24 C18        -26.7960    27.8110    13.8780 c3         1 QTI       0.241100
     25 C19        -26.8520    27.0490    12.5930 cd         1 QTI      -0.217300
     26 S23        -27.7030    25.5470    12.4930 ss         1 QTI       0.250000
     27 C25        -26.8720    23.7240     8.9880 ca         1 QTI      -0.076000
     28 C27        -28.3890    21.9280     8.4600 ca         1 QTI      -0.080000
     29 C29        -28.8810    23.4580    10.2260 ca         1 QTI       0.167000
     30 F30        -29.7410    23.8580    11.1980 f          1 QTI      -0.181000
     31 C31        -24.9020    26.6370    14.8240 c6         1 QTI       0.164300
     32 C32        -24.4570    25.6940    15.9270 c6         1 QTI       0.195800
     33 H1         -23.2910    23.1360    17.3740 ha         1 QTI       0.152000
     34 H2         -26.2250    27.2290    18.3630 h1         1 QTI       0.059700
     35 H3         -26.7610    25.8300    17.4040 h1         1 QTI       0.059700
     36 H4         -25.7470    28.2900    11.2230 ha         1 QTI       0.134000
     37 H5         -26.2430    26.5280     9.3440 ha         1 QTI       0.135000
     38 H6         -26.5370    22.2950     7.4310 ha         1 QTI       0.121000
     39 H7         -30.1660    21.8430     9.6930 ha         1 QTI       0.134000
     40 H8         -25.9690    20.4380    15.6990 hn         1 QTI       0.476500
     41 H9         -24.7160    21.4130    15.1360 hn         1 QTI       0.476500
     42 H10        -26.3640    20.6250    19.0030 ha         1 QTI       0.140000
     43 H11        -27.2080    22.5270    20.3490 ha         1 QTI       0.128000
     44 H12        -26.1170    24.7450    20.1750 ha         1 QTI       0.139000
     45 H13        -25.9430    28.5820    16.3520 h1         1 QTI       0.050450
     46 H14        -27.5760    27.8880    16.3800 h1         1 QTI       0.050450
     47 H16        -26.1700    28.7030    13.7190 h1         1 QTI       0.049200
     48 H17        -27.7940    28.1630    14.1490 h1         1 QTI       0.049200
     49 H18        -25.9390    24.2410     8.8080 ha         1 QTI       0.121000
     50 H19        -28.6520    21.0620     7.8680 ha         1 QTI       0.121000
     51 H20        -24.7690    26.1360    13.8650 h1         1 QTI       0.050450
     52 H21        -24.2620    27.5350    14.8280 h1         1 QTI       0.050450
     53 H22        -25.0130    24.7520    15.8510 h1         1 QTI       0.059700
     54 H23        -23.3940    25.4880    15.8320 h1         1 QTI       0.059700
@<TRIPOS>BOND
     1     1    13 ar  
     2     1    17 ar  
     3     1    33 1   
     4     2    21 1   
     5     2    22 1   
     6     2    34 1   
     7     2    35 1   
     8     3     4 1   
     9     3    25 2   
    10     3    36 1   
    11     4     5 2   
    12     4    37 1   
    13     5     6 1   
    14     5    26 1   
    15     6    27 ar  
    16     6    29 ar  
    17     7    27 ar  
    18     7    28 ar  
    19     7    38 1   
    20     8    28 ar  
    21     8    29 ar  
    22     8    39 1   
    23     9    10 1   
    24     9    40 1   
    25     9    41 1   
    26    10    11 2   
    27    10    12 2   
    28    10    13 1   
    29    13    14 ar  
    30    14    15 ar  
    31    14    42 1   
    32    15    16 ar  
    33    15    43 1   
    34    16    17 ar  
    35    16    44 1   
    36    17    18 1   
    37    18    19 2   
    38    18    20 2   
    39    18    21 1   
    40    21    32 1   
    41    22    23 1   
    42    22    45 1   
    43    22    46 1   
    44    23    24 1   
    45    23    31 1   
    46    24    25 1   
    47    24    47 1   
    48    24    48 1   
    49    25    26 1   
    50    27    49 1   
    51    28    50 1   
    52    29    30 1   
    53    31    32 1   
    54    31    51 1   
    55    31    52 1   
    56    32    53 1   
    57    32    54 1   
@<TRIPOS>SUBSTRUCTURE
     1 QTI         1 TEMP              0 ****  ****    0 ROOT
