@<TRIPOS>MOLECULE
QTJ
   28    29     1     0     0
SMALL
No Charge or Current Charge


@<TRIPOS>ATOM
      1 N1          34.8110    28.5750    27.1500 n8         1 QTJ      -1.005100
      2 C4          33.9830    29.8650    22.1960 ca         1 QTJ       0.189100
      3 C5          32.8490    30.5950    20.1880 ca         1 QTJ       0.080100
      4 C6          32.0630    30.0640    19.1500 ca         1 QTJ      -0.086000
      5 C7          31.1660    30.8930    18.4510 ca         1 QTJ      -0.138000
      6 C8          31.0640    32.2540    18.7860 ca         1 QTJ       0.184000
      7 C10         32.7560    31.9630    20.5150 ca         1 QTJ      -0.084000
      8 C1          34.5490    30.0310    24.9470 ca         1 QTJ      -0.312500
      9 C11         32.9490    30.1330    23.1120 ca         1 QTJ      -0.187000
     10 C12         33.2290    30.2210    24.4860 ca         1 QTJ       0.027500
     11 C2          35.5810    29.7500    24.0290 ca         1 QTJ       0.027500
     12 C3          35.2920    29.6630    22.6560 ca         1 QTJ      -0.187000
     13 C9          31.8600    32.7920    19.8170 ca         1 QTJ       0.073000
     14 F1          30.1990    33.0420    18.1070 f          1 QTJ      -0.154000
     15 O1          36.3210    30.5030    26.9020 o          1 QTJ      -0.545000
     16 O2          33.8160    30.7870    27.4010 o          1 QTJ      -0.545000
     17 S1          34.9190    30.1410    26.6950 sy         1 QTJ       1.132600
     18 Cl1         31.7500    34.4990    20.2430 cl         1 QTJ      -0.154000
     19 H1          34.1690    28.6480    27.9360 hn         1 QTJ       0.473000
     20 H2          34.2430    28.1750    26.4080 hn         1 QTJ       0.473000
     21 H3          32.1470    29.0110    18.8920 ha         1 QTJ       0.139000
     22 H4          30.5530    30.4850    17.6510 ha         1 QTJ       0.142000
     23 H5          33.3760    32.3860    21.3010 ha         1 QTJ       0.150000
     24 H6          31.9290    30.2690    22.7630 ha         1 QTJ       0.134000
     25 H7          32.4190    30.4350    25.1840 ha         1 QTJ       0.139500
     26 H8          36.6040    29.5950    24.3720 ha         1 QTJ       0.139500
     27 H9          36.0850    29.4450    21.9470 ha         1 QTJ       0.134000
     28 O3          33.7280    29.7640    20.8470 os         1 QTJ      -0.243200
@<TRIPOS>BOND
     1     1    17 1   
     2     1    19 1   
     3     1    20 1   
     4     2     9 ar  
     5     2    12 ar  
     6     2    28 1   
     7     3     4 ar  
     8     3     7 ar  
     9     3    28 1   
    10     4     5 ar  
    11     4    21 1   
    12     5     6 ar  
    13     5    22 1   
    14     6    13 ar  
    15     6    14 1   
    16     7    13 ar  
    17     7    23 1   
    18     8    10 ar  
    19     8    11 ar  
    20     8    17 1   
    21     9    10 ar  
    22     9    24 1   
    23    10    25 1   
    24    11    12 ar  
    25    11    26 1   
    26    12    27 1   
    27    13    18 1   
    28    15    17 2   
    29    16    17 2   
@<TRIPOS>SUBSTRUCTURE
     1 QTJ         1 TEMP              0 ****  ****    0 ROOT
