@<TRIPOS>MOLECULE
QTJ
   28    29     1     0     0
SMALL
bcc


@<TRIPOS>ATOM
      1 N1          34.5500    28.1400    26.8050 n8         1 QTJ      -0.894700
      2 C4          34.2190    30.3230    22.1880 ca         1 QTJ       0.189100
      3 C5          33.1080    30.9660    20.2130 ca         1 QTJ       0.080100
      4 C6          32.1390    30.1020    19.7300 ca         1 QTJ      -0.104000
      5 C7          31.0470    30.6170    19.0490 ca         1 QTJ      -0.156000
      6 C8          30.9400    31.9810    18.8700 ca         1 QTJ       0.148900
      7 C10         33.0040    32.3370    20.0380 ca         1 QTJ      -0.102000
      8 C1          34.4120    29.9840    24.9210 ca         1 QTJ      -0.312500
      9 C11         33.1440    30.6610    23.0000 ca         1 QTJ      -0.205000
     10 C12         33.2460    30.4900    24.3730 ca         1 QTJ       0.009500
     11 C2          35.4900    29.6440    24.1070 ca         1 QTJ       0.009500
     12 C3          35.3940    29.8120    22.7430 ca         1 QTJ      -0.205000
     13 C9          31.9090    32.8440    19.3580 ca         1 QTJ      -0.018600
     14 F1          29.8930    32.4860    18.2180 f          1 QTJ      -0.118900
     15 O1          35.8920    30.2050    27.0910 o          1 QTJ      -0.615800
     16 O2          33.4100    30.4210    27.2920 o          1 QTJ      -0.615800
     17 S1          34.5630    29.7860    26.6660 sy         1 QTJ       1.274200
     18 CL1         31.7370    34.5370    19.1100 cl         1 QTJ      -0.062400
     19 H1          34.9170    27.8400    27.7040 hn         1 QTJ       0.417800
     20 H2          33.6310    27.7390    26.6490 hn         1 QTJ       0.417800
     21 H3          32.2360    29.0340    19.8740 ha         1 QTJ       0.157000
     22 H4          30.2800    29.9620    18.6580 ha         1 QTJ       0.160000
     23 H5          33.7680    33.0020    20.4190 ha         1 QTJ       0.168000
     24 H6          32.2250    31.0570    22.5890 ha         1 QTJ       0.152000
     25 H7          32.4060    30.7570    24.9990 ha         1 QTJ       0.157500
     26 H8          36.4050    29.2490    24.5290 ha         1 QTJ       0.157500
     27 H9          36.2250    29.5520    22.1000 ha         1 QTJ       0.152000
     28 O3          34.2170    30.4550    20.8410 os         1 QTJ      -0.243200
@<TRIPOS>BOND
     1     1    17 1   
     2     1    19 1   
     3     1    20 1   
     4     2     9 ar  
     5     2    12 ar  
     6     2    28 1   
     7     3     4 ar  
     8     3     7 ar  
     9     3    28 1   
    10     4     5 ar  
    11     4    21 1   
    12     5     6 ar  
    13     5    22 1   
    14     6    13 ar  
    15     6    14 1   
    16     7    13 ar  
    17     7    23 1   
    18     8    10 ar  
    19     8    11 ar  
    20     8    17 1   
    21     9    10 ar  
    22     9    24 1   
    23    10    25 1   
    24    11    12 ar  
    25    11    26 1   
    26    12    27 1   
    27    13    18 1   
    28    15    17 2   
    29    16    17 2   
@<TRIPOS>SUBSTRUCTURE
     1 QTJ         1 TEMP              0 ****  ****    0 ROOT
