@<TRIPOS>MOLECULE
QTK
   37    39     1     0     0
SMALL
No Charge or Current Charge


@<TRIPOS>ATOM
      1 CAP          6.8780   -26.7970   -28.3250 c5         1 QTK       0.050100
      2 CAN          6.4710   -26.6620   -29.8190 c5         1 QTK      -0.093400
      3 CAO          7.0490   -25.2680   -30.1840 c5         1 QTK      -0.093400
      4 CAQ          8.4680   -25.3740   -29.5730 c5         1 QTK       0.050100
      5 NAW          8.1530   -26.0340   -28.2850 nh         1 QTK      -0.227000
      6 CAV          9.2010   -26.5600   -27.5210 cc         1 QTK       0.214000
      7 CAK          8.9380   -27.2420   -26.3020 cc         1 QTK      -0.233500
      8 CAM          9.9410   -27.7640   -25.5100 cd         1 QTK      -0.013000
      9 CAJ         10.5730   -26.3950   -27.8670 cc         1 QTK      -0.233500
     10 CAL         11.5980   -26.9070   -27.0940 cd         1 QTK      -0.013000
     11 NAX         11.2880   -27.6250   -25.9160 na         1 QTK       0.034000
     12 CAR         12.3640   -28.2000   -25.0840 c3         1 QTK       0.102900
     13 CAS         12.5110   -27.5360   -23.7150 ca         1 QTK      -0.158300
     14 CAG         12.6970   -28.3300   -22.5650 ca         1 QTK      -0.089500
     15 CAI         12.8350   -27.7300   -21.3010 ca         1 QTK      -0.099000
     16 CAF         12.4740   -26.1310   -23.5840 ca         1 QTK      -0.089500
     17 CAH         12.6110   -25.5330   -22.3200 ca         1 QTK      -0.099000
     18 CAU         12.7910   -26.3310   -21.1770 ca         1 QTK      -0.074000
     19 H1           6.1350   -26.3350   -27.6620 h1         1 QTK       0.071950
     20 H2           6.9930   -27.8520   -28.0400 h1         1 QTK       0.071950
     21 H3           5.3870   -26.7280   -29.9650 hc         1 QTK       0.077950
     22 H4           6.9300   -27.4520   -30.4260 hc         1 QTK       0.077950
     23 H5           6.4710   -24.4580   -29.7230 hc         1 QTK       0.077950
     24 H6           7.0700   -25.0850   -31.2650 hc         1 QTK       0.077950
     25 H7           9.1190   -25.9990   -30.1990 h1         1 QTK       0.071950
     26 H8           8.9360   -24.3900   -29.4370 h1         1 QTK       0.071950
     27 H9           7.9110   -27.3460   -25.9680 ha         1 QTK       0.161000
     28 H10          9.7620   -28.2850   -24.5750 h4         1 QTK       0.172500
     29 H11         10.8430   -25.8490   -28.7630 ha         1 QTK       0.161000
     30 H12         12.6480   -26.7950   -27.3430 h4         1 QTK       0.172500
     31 H13         12.1560   -29.2700   -24.9570 h1         1 QTK       0.087200
     32 H14         13.3170   -28.1210   -25.6210 h1         1 QTK       0.087200
     33 H15         12.7350   -29.4150   -22.6470 ha         1 QTK       0.113500
     34 H16         12.9770   -28.3490   -20.4180 ha         1 QTK       0.132500
     35 H17         12.3400   -25.4990   -24.4590 ha         1 QTK       0.113500
     36 H18         12.5800   -24.4490   -22.2250 ha         1 QTK       0.132500
     37 H19         12.8980   -25.8670   -20.1990 ha         1 QTK       0.134000
@<TRIPOS>BOND
     1     1     2 1   
     2     1     5 1   
     3     1    19 1   
     4     1    20 1   
     5     2     3 1   
     6     2    21 1   
     7     2    22 1   
     8     3     4 1   
     9     3    23 1   
    10     3    24 1   
    11     4     5 1   
    12     4    25 1   
    13     4    26 1   
    14     5     6 2   
    15     6     7 1   
    16     6     9 1   
    17     7     8 2   
    18     7    27 1   
    19     8    11 1   
    20     8    28 1   
    21     9    10 2   
    22     9    29 1   
    23    10    11 1   
    24    10    30 1   
    25    11    12 1   
    26    12    13 1   
    27    12    31 1   
    28    12    32 1   
    29    13    14 ar  
    30    13    16 ar  
    31    14    15 ar  
    32    14    33 1   
    33    15    18 ar  
    34    15    34 1   
    35    16    17 ar  
    36    16    35 1   
    37    17    18 ar  
    38    17    36 1   
    39    18    37 1   
@<TRIPOS>SUBSTRUCTURE
     1 QTK         1 TEMP              0 ****  ****    0 ROOT
