@<TRIPOS>MOLECULE
QTK
   37    39     1     0     0
SMALL
abcg2


@<TRIPOS>ATOM
      1 CAP          6.9610   -26.7960   -28.1770 c5         1 QTK       0.050100
      2 CAN          6.2770   -26.3900   -29.4750 c5         1 QTK      -0.093400
      3 CAO          7.1000   -25.1960   -29.9450 c5         1 QTK      -0.093400
      4 CAQ          8.5270   -25.5920   -29.5880 c5         1 QTK       0.050100
      5 NAW          8.3600   -26.4380   -28.4070 nh         1 QTK      -0.227000
      6 CAV          9.3610   -26.8330   -27.6390 cc         1 QTK       0.214000
      7 CAK          9.1480   -27.5920   -26.4560 cc         1 QTK      -0.233500
      8 CAM         10.2030   -27.9770   -25.6920 cd         1 QTK      -0.013000
      9 CAJ         10.7110   -26.5250   -27.9470 cc         1 QTK      -0.233500
     10 CAL         11.7140   -26.9530   -27.1340 cd         1 QTK      -0.013000
     11 NAX         11.4750   -27.6690   -26.0190 na         1 QTK       0.034000
     12 CAR         12.5690   -28.1010   -25.1400 c3         1 QTK       0.102900
     13 CAS         12.4950   -27.4400   -23.7900 ca         1 QTK      -0.158300
     14 CAG         12.4570   -28.2160   -22.6380 ca         1 QTK      -0.089500
     15 CAI         12.4040   -27.6150   -21.3860 ca         1 QTK      -0.099000
     16 CAF         12.4750   -26.0520   -23.6790 ca         1 QTK      -0.089500
     17 CAH         12.4170   -25.4510   -22.4310 ca         1 QTK      -0.099000
     18 CAU         12.3830   -26.2330   -21.2800 ca         1 QTK      -0.074000
     19 H1           6.5660   -26.2430   -27.3210 h1         1 QTK       0.071950
     20 H2           6.8610   -27.8620   -27.9690 h1         1 QTK       0.071950
     21 H3           5.2250   -26.1550   -29.3240 hc         1 QTK       0.077950
     22 H4           6.3400   -27.2040   -30.2000 hc         1 QTK       0.077950
     23 H5           6.8110   -24.2970   -29.3970 hc         1 QTK       0.077950
     24 H6           6.9910   -24.9890   -31.0080 hc         1 QTK       0.077950
     25 H7           9.0000   -26.1610   -30.3940 h1         1 QTK       0.071950
     26 H8           9.1570   -24.7310   -29.3630 h1         1 QTK       0.071950
     27 H9           8.1570   -27.8680   -26.1300 ha         1 QTK       0.161000
     28 H10         10.0620   -28.5490   -24.7860 h4         1 QTK       0.172500
     29 H11         10.9810   -25.9640   -28.8290 ha         1 QTK       0.161000
     30 H12         12.7490   -26.7360   -27.3570 h4         1 QTK       0.172500
     31 H13         12.5230   -29.1850   -25.0440 h1         1 QTK       0.087200
     32 H14         13.5030   -27.8590   -25.6450 h1         1 QTK       0.087200
     33 H15         12.4660   -29.2960   -22.7180 ha         1 QTK       0.113500
     34 H16         12.3750   -28.2310   -20.4970 ha         1 QTK       0.132500
     35 H17         12.5050   -25.4300   -24.5660 ha         1 QTK       0.113500
     36 H18         12.4020   -24.3720   -22.3540 ha         1 QTK       0.132500
     37 H19         12.3370   -25.7620   -20.3070 ha         1 QTK       0.134000
@<TRIPOS>BOND
     1     1     2 1   
     2     1     5 1   
     3     1    19 1   
     4     1    20 1   
     5     2     3 1   
     6     2    21 1   
     7     2    22 1   
     8     3     4 1   
     9     3    23 1   
    10     3    24 1   
    11     4     5 1   
    12     4    25 1   
    13     4    26 1   
    14     5     6 2   
    15     6     7 1   
    16     6     9 1   
    17     7     8 2   
    18     7    27 1   
    19     8    11 1   
    20     8    28 1   
    21     9    10 2   
    22     9    29 1   
    23    10    11 1   
    24    10    30 1   
    25    11    12 1   
    26    12    13 1   
    27    12    31 1   
    28    12    32 1   
    29    13    14 ar  
    30    13    16 ar  
    31    14    15 ar  
    32    14    33 1   
    33    15    18 ar  
    34    15    34 1   
    35    16    17 ar  
    36    16    35 1   
    37    17    18 ar  
    38    17    36 1   
    39    18    37 1   
@<TRIPOS>SUBSTRUCTURE
     1 QTK         1 TEMP              0 ****  ****    0 ROOT
