@<TRIPOS>MOLECULE
QTL
   40    43     1     0     0
SMALL
No Charge or Current Charge


@<TRIPOS>ATOM
      1 N1         -20.0500     5.2660    26.3730 ns         1 QTL      -0.172000
      2 C4         -23.6070     6.9500    29.7530 c6         1 QTL      -0.027100
      3 C5         -23.1030     7.4280    28.3730 c6         1 QTL       0.159800
      4 C6         -22.0770     5.2340    27.8250 c6         1 QTL       0.156800
      5 C7         -20.5730     5.6330    27.6050 c          1 QTL       0.553100
      6 C8         -18.7570     5.5030    25.8310 ca         1 QTL      -0.078000
      7 C10        -16.2090     5.7200    24.7850 ca         1 QTL       0.358900
      8 C13        -16.9570     9.3200    25.3820 ca         1 QTL      -0.106000
      9 C15        -18.8830     7.9820    26.0410 ca         1 QTL      -0.088000
     10 C17        -22.2960     4.7930    29.2850 ca         1 QTL      -0.059300
     11 O          -19.9070     6.2190    28.4550 o          1 QTL      -0.558100
     12 N          -23.0580     6.3010    27.4150 n7         1 QTL      -0.863400
     13 C3         -22.9950     5.6170    30.2010 ca         1 QTL      -0.040300
     14 C2         -23.1640     5.1940    31.5340 ca         1 QTL      -0.104000
     15 C1         -22.6390     3.9630    31.9610 ca         1 QTL      -0.091000
     16 C18        -21.7760     3.5580    29.7220 ca         1 QTL      -0.091000
     17 C          -21.9460     3.1470    31.0540 ca         1 QTL       0.124000
     18 Cl         -21.2890     1.6040    31.5860 cl         1 QTL      -0.213000
     19 C16        -18.1910     6.7970    25.6990 ca         1 QTL      -0.002000
     20 C14        -18.2650     9.2350    25.8860 ca         1 QTL      -0.091000
     21 C12        -16.2670     8.1520    25.0200 ca         1 QTL      -0.083000
     22 C11        -16.8840     6.8950    25.1700 ca         1 QTL      -0.090000
     23 N2         -16.7550     4.4870    24.8830 nb         1 QTL      -0.651000
     24 C9         -18.0040     4.3940    25.3910 ca         1 QTL       0.309900
     25 H1         -20.6740     4.7380    25.7750 hn         1 QTL       0.157000
     26 H3         -24.6980     6.8350    29.7100 hc         1 QTL       0.058700
     27 H4         -22.1010     7.8700    28.4780 h1         1 QTL       0.047700
     28 H5         -23.7720     8.2160    27.9940 h1         1 QTL       0.047700
     29 H6         -22.2470     4.3550    27.1850 h1         1 QTL       0.072700
     30 H7         -15.2020     5.7670    24.3720 h4         1 QTL       0.022100
     31 H8         -16.4820    10.2920    25.2640 ha         1 QTL       0.118000
     32 H9         -19.9010     7.9500    26.4160 ha         1 QTL       0.115000
     33 H10        -22.8150     6.6550    26.4790 hn         1 QTL       0.421000
     34 H12        -23.7080     5.8200    32.2400 ha         1 QTL       0.118000
     35 H13        -22.7700     3.6400    32.9900 ha         1 QTL       0.131000
     36 H14        -21.2350     2.9150    29.0320 ha         1 QTL       0.125000
     37 H15        -18.8030    10.1410    26.1550 ha         1 QTL       0.115000
     38 H16        -15.2590     8.2260    24.6180 ha         1 QTL       0.119000
     39 H17        -18.4130     3.3870    25.4660 h4         1 QTL       0.022100
     40 H2         -23.4100     7.7290    30.5010 hc         1 QTL       0.058700
@<TRIPOS>BOND
     1     1     5 1   
     2     1     6 1   
     3     1    25 1   
     4     2     3 1   
     5     2    13 1   
     6     2    26 1   
     7     2    40 1   
     8     3    12 1   
     9     3    27 1   
    10     3    28 1   
    11     4     5 1   
    12     4    10 1   
    13     4    12 1   
    14     4    29 1   
    15     5    11 2   
    16     6    19 ar  
    17     6    24 ar  
    18     7    22 ar  
    19     7    23 ar  
    20     7    30 1   
    21     8    20 ar  
    22     8    21 ar  
    23     8    31 1   
    24     9    19 ar  
    25     9    20 ar  
    26     9    32 1   
    27    10    13 ar  
    28    10    16 ar  
    29    12    33 1   
    30    13    14 ar  
    31    14    15 ar  
    32    14    34 1   
    33    15    17 ar  
    34    15    35 1   
    35    16    17 ar  
    36    16    36 1   
    37    17    18 1   
    38    19    22 ar  
    39    20    37 1   
    40    21    22 ar  
    41    21    38 1   
    42    23    24 ar  
    43    24    39 1   
@<TRIPOS>SUBSTRUCTURE
     1 QTL         1 TEMP              0 ****  ****    0 ROOT
