@<TRIPOS>MOLECULE
QTL
   40    43     1     0     0
SMALL
abcg2


@<TRIPOS>ATOM
      1 N1         -20.0870     5.1820    26.3580 ns         1 QTL      -0.172000
      2 C4         -23.3600     7.0320    29.7360 c6         1 QTL      -0.027100
      3 C5         -22.7290     7.4850    28.4270 c6         1 QTL       0.159800
      4 C6         -22.0340     5.2160    27.8110 c6         1 QTL       0.156800
      5 C7         -20.5350     5.5010    27.6010 c          1 QTL       0.553100
      6 C8         -18.7720     5.4450    25.8980 ca         1 QTL      -0.078000
      7 C10        -16.2220     5.7710    24.9720 ca         1 QTL       0.358900
      8 C13        -17.2230     9.3350    25.3230 ca         1 QTL      -0.106000
      9 C15        -19.0910     7.9300    25.9680 ca         1 QTL      -0.088000
     10 C17        -22.2980     4.7900    29.2350 ca         1 QTL      -0.059300
     11 O          -19.8340     6.0460    28.4450 o          1 QTL      -0.558100
     12 N          -22.8300     6.3940    27.4540 n7         1 QTL      -0.863400
     13 C3         -22.8910     5.6590    30.1530 ca         1 QTL      -0.040300
     14 C2         -23.0730     5.2210    31.4670 ca         1 QTL      -0.104000
     15 C1         -22.6830     3.9530    31.8720 ca         1 QTL      -0.091000
     16 C18        -21.9050     3.5110    29.6290 ca         1 QTL      -0.091000
     17 C          -22.1020     3.1060    30.9370 ca         1 QTL       0.124000
     18 CL         -21.6070     1.4940    31.4220 cl         1 QTL      -0.213000
     19 C16        -18.3100     6.7770    25.7260 ca         1 QTL      -0.002000
     20 C14        -18.5540     9.1770    25.7700 ca         1 QTL      -0.091000
     21 C12        -16.4480     8.2330    25.0680 ca         1 QTL      -0.083000
     22 C11        -16.9760     6.9340    25.2570 ca         1 QTL      -0.090000
     23 N2         -16.6800     4.5480    25.1140 nb         1 QTL      -0.651000
     24 C9         -17.9440     4.3960    25.5830 ca         1 QTL       0.309900
     25 H1         -20.6800     4.6100    25.7740 hn         1 QTL       0.157000
     26 H3         -24.4480     7.0080    29.6200 hc         1 QTL       0.058700
     27 H4         -21.6920     7.7980    28.5990 h1         1 QTL       0.047700
     28 H5         -23.2700     8.3420    28.0260 h1         1 QTL       0.047700
     29 H6         -22.3260     4.4050    27.1400 h1         1 QTL       0.072700
     30 H7         -15.2040     5.8820    24.6100 h4         1 QTL       0.022100
     31 H8         -16.8220    10.3290    25.1780 ha         1 QTL       0.118000
     32 H9         -20.1120     7.8250    26.3050 ha         1 QTL       0.115000
     33 H10        -22.5740     6.7130    26.5270 hn         1 QTL       0.421000
     34 H12        -23.5260     5.8890    32.1890 ha         1 QTL       0.118000
     35 H13        -22.8280     3.6270    32.8930 ha         1 QTL       0.131000
     36 H14        -21.4450     2.8410    28.9140 ha         1 QTL       0.125000
     37 H15        -19.1590    10.0560    25.9550 ha         1 QTL       0.115000
     38 H16        -15.4300     8.3370    24.7150 ha         1 QTL       0.119000
     39 H17        -18.2980     3.3790    25.7060 h4         1 QTL       0.022100
     40 H2         -23.1430     7.7520    30.5280 hc         1 QTL       0.058700
@<TRIPOS>BOND
     1     1     5 1   
     2     1     6 1   
     3     1    25 1   
     4     2     3 1   
     5     2    13 1   
     6     2    26 1   
     7     2    40 1   
     8     3    12 1   
     9     3    27 1   
    10     3    28 1   
    11     4     5 1   
    12     4    10 1   
    13     4    12 1   
    14     4    29 1   
    15     5    11 2   
    16     6    19 ar  
    17     6    24 ar  
    18     7    22 ar  
    19     7    23 ar  
    20     7    30 1   
    21     8    20 ar  
    22     8    21 ar  
    23     8    31 1   
    24     9    19 ar  
    25     9    20 ar  
    26     9    32 1   
    27    10    13 ar  
    28    10    16 ar  
    29    12    33 1   
    30    13    14 ar  
    31    14    15 ar  
    32    14    34 1   
    33    15    17 ar  
    34    15    35 1   
    35    16    17 ar  
    36    16    36 1   
    37    17    18 1   
    38    19    22 ar  
    39    20    37 1   
    40    21    22 ar  
    41    21    38 1   
    42    23    24 ar  
    43    24    39 1   
@<TRIPOS>SUBSTRUCTURE
     1 QTL         1 TEMP              0 ****  ****    0 ROOT
