@<TRIPOS>MOLECULE
QTM
   36    37     1     0     0
SMALL
No Charge or Current Charge


@<TRIPOS>ATOM
      1 N1          37.1870    27.3670    20.2990 n8         1 QTM      -0.998200
      2 C4          35.3340    29.6660    24.0030 ca         1 QTM       0.031000
      3 C5          34.3260    29.9950    24.9310 ca         1 QTM      -0.309500
      4 C6          33.0070    30.2170    24.4900 ca         1 QTM       0.022000
      5 C7          32.7050    30.1170    23.1230 ca         1 QTM      -0.211000
      6 C8          33.7130    29.8020    22.1940 ca         1 QTM       0.189100
      7 C10         31.7950    30.1590    19.1440 ca         1 QTM      -0.089000
      8 C13         31.8380    32.8900    19.8280 ca         1 QTM       0.073000
      9 C1          36.0960    27.7190    21.2300 c3         1 QTM       0.153800
     10 C11         30.9870    31.0720    18.4410 ca         1 QTM      -0.138000
     11 C12         31.0070    32.4340    18.7850 ca         1 QTM       0.184000
     12 C14         32.6460    31.9780    20.5300 ca         1 QTM      -0.083000
     13 C2          36.1390    29.2070    21.6360 c3         1 QTM      -0.025100
     14 C3          35.0340    29.5670    22.6300 ca         1 QTM      -0.124300
     15 C9          32.6160    30.6080    20.1940 ca         1 QTM       0.080100
     16 S1          34.7210    30.1190    26.6740 sy         1 QTM       1.131600
     17 Cl1         31.8830    34.5980    20.2640 cl         1 QTM      -0.154000
     18 H1          37.0880    26.3810    20.0250 hn         1 QTM       0.394000
     19 H2          37.0500    27.8740    19.4160 hn         1 QTM       0.394000
     20 H4          36.3520    29.4840    24.3460 ha         1 QTM       0.139000
     21 H5          32.2170    30.4610    25.2000 ha         1 QTM       0.142000
     22 H6          31.6840    30.2780    22.7870 ha         1 QTM       0.131000
     23 H7          31.7830    29.1040    18.8800 ha         1 QTM       0.137000
     24 H8          35.1340    27.4930    20.7490 h1         1 QTM       0.029700
     25 H9          36.1870    27.0930    22.1290 h1         1 QTM       0.029700
     26 H10         30.3470    30.7270    17.6320 ha         1 QTM       0.142000
     27 H11         33.2930    32.3370    21.3250 ha         1 QTM       0.150000
     28 H12         37.1230    29.4300    22.0670 hc         1 QTM       0.062200
     29 H13         36.0560    29.8310    20.7380 hc         1 QTM       0.062200
     30 H14         35.3760    28.4370    27.6870 hn         1 QTM       0.473500
     31 H15         33.8570    28.7660    27.9800 hn         1 QTM       0.473500
     32 O1          33.4050    29.6940    20.8550 os         1 QTM      -0.246200
     33 F1          30.2270    33.3030    18.1020 f          1 QTM      -0.153000
     34 N2          34.4940    28.5960    27.2060 n8         1 QTM      -1.005100
     35 O2          36.1510    30.3420    26.8710 o          1 QTM      -0.544000
     36 O3          33.7040    30.8870    27.3890 o          1 QTM      -0.544000
@<TRIPOS>BOND
     1     1     9 1   
     2     1    18 1   
     3     1    19 1   
     4     2     3 ar  
     5     2    14 ar  
     6     2    20 1   
     7     3     4 ar  
     8     3    16 1   
     9     4     5 ar  
    10     4    21 1   
    11     5     6 ar  
    12     5    22 1   
    13     6    14 ar  
    14     6    32 1   
    15     7    10 ar  
    16     7    15 ar  
    17     7    23 1   
    18     8    11 ar  
    19     8    12 ar  
    20     8    17 1   
    21     9    13 1   
    22     9    24 1   
    23     9    25 1   
    24    10    11 ar  
    25    10    26 1   
    26    11    33 1   
    27    12    15 ar  
    28    12    27 1   
    29    13    14 1   
    30    13    28 1   
    31    13    29 1   
    32    15    32 1   
    33    16    34 1   
    34    16    35 2   
    35    16    36 2   
    36    30    34 1   
    37    31    34 1   
@<TRIPOS>SUBSTRUCTURE
     1 QTM         1 TEMP              0 ****  ****    0 ROOT
