@<TRIPOS>MOLECULE
QTM
   36    37     1     0     0
SMALL
bcc


@<TRIPOS>ATOM
      1 N1          37.0250    27.3510    20.3140 n8         1 QTM      -0.887800
      2 C4          35.3450    29.5500    24.0650 ca         1 QTM       0.013000
      3 C5          34.3370    29.9950    24.9150 ca         1 QTM      -0.309500
      4 C6          33.1940    30.5880    24.4090 ca         1 QTM       0.004000
      5 C7          33.0580    30.7350    23.0370 ca         1 QTM      -0.229000
      6 C8          34.0660    30.2890    22.1920 ca         1 QTM       0.189100
      7 C10         31.8430    30.1610    19.8710 ca         1 QTM      -0.107000
      8 C13         31.8030    32.8900    19.3620 ca         1 QTM      -0.018600
      9 C1          35.9610    27.7970    21.1970 c3         1 QTM       0.153800
     10 C11         30.7560    30.7260    19.2230 ca         1 QTM      -0.156000
     11 C12         30.7440    32.0840    18.9750 ca         1 QTM       0.148900
     12 C14         32.8930    32.3330    20.0100 ca         1 QTM      -0.101000
     13 C2          36.3030    29.1690    21.7800 c3         1 QTM      -0.025100
     14 C3          35.2290    29.6840    22.6940 ca         1 QTM      -0.124300
     15 C9          32.9020    30.9680    20.2540 ca         1 QTM       0.080100
     16 S1          34.5530    29.8320    26.6570 sy         1 QTM       1.273200
     17 CL1         31.7480    34.5770    19.0290 cl         1 QTM      -0.062400
     18 H1          36.8210    26.4160    19.9860 hn         1 QTM       0.338800
     19 H2          37.0410    27.9330    19.4850 hn         1 QTM       0.338800
     20 H4          36.2380    29.0880    24.4680 ha         1 QTM       0.157000
     21 H5          32.4070    30.9400    25.0600 ha         1 QTM       0.160000
     22 H6          32.1620    31.1980    22.6480 ha         1 QTM       0.149000
     23 H7          31.8660    29.0970    20.0680 ha         1 QTM       0.155000
     24 H8          34.9750    27.8410    20.7150 h1         1 QTM       0.029700
     25 H9          35.8710    27.0810    22.0170 h1         1 QTM       0.029700
     26 H10         29.9200    30.1140    18.9090 ha         1 QTM       0.160000
     27 H11         33.7250    32.9530    20.3140 ha         1 QTM       0.168000
     28 H12         37.2390    29.0870    22.3370 hc         1 QTM       0.062200
     29 H13         36.4830    29.8760    20.9670 hc         1 QTM       0.062200
     30 H14         34.9110    27.9040    27.7250 hn         1 QTM       0.418300
     31 H15         33.5790    27.8070    26.7270 hn         1 QTM       0.418300
     32 O1          34.0050    30.4060    20.8430 os         1 QTM      -0.246200
     33 F1          29.7030    32.6350    18.3520 f          1 QTM      -0.117900
     34 N2          34.5130    28.1910    26.8350 n8         1 QTM      -0.894700
     35 O2          35.9040    30.2340    27.0260 o          1 QTM      -0.614800
     36 O3          33.4360    30.5030    27.3120 o          1 QTM      -0.614800
@<TRIPOS>BOND
     1     1     9 1   
     2     1    18 1   
     3     1    19 1   
     4     2     3 ar  
     5     2    14 ar  
     6     2    20 1   
     7     3     4 ar  
     8     3    16 1   
     9     4     5 ar  
    10     4    21 1   
    11     5     6 ar  
    12     5    22 1   
    13     6    14 ar  
    14     6    32 1   
    15     7    10 ar  
    16     7    15 ar  
    17     7    23 1   
    18     8    11 ar  
    19     8    12 ar  
    20     8    17 1   
    21     9    13 1   
    22     9    24 1   
    23     9    25 1   
    24    10    11 ar  
    25    10    26 1   
    26    11    33 1   
    27    12    15 ar  
    28    12    27 1   
    29    13    14 1   
    30    13    28 1   
    31    13    29 1   
    32    15    32 1   
    33    16    34 1   
    34    16    35 2   
    35    16    36 2   
    36    30    34 1   
    37    31    34 1   
@<TRIPOS>SUBSTRUCTURE
     1 QTM         1 TEMP              0 ****  ****    0 ROOT
