@<TRIPOS>MOLECULE
QTN
   64    69     1     0     0
SMALL
No Charge or Current Charge


@<TRIPOS>ATOM
      1 C1         -17.9380    23.1310    -3.2660 ca         1 QTN       0.334000
      2 C2         -16.7590    22.5000    -2.8450 ca         1 QTN      -0.224500
      3 C3         -16.0420    22.9850    -1.7370 ca         1 QTN      -0.040000
      4 O4         -12.0740    24.0400     9.2560 os         1 QTN      -0.432000
      5 C7         -15.7310    24.6380     0.1660 cp         1 QTN       0.012000
      6 C8         -14.3170    24.5760     0.2140 ca         1 QTN      -0.121500
      7 C9         -13.6030    25.0630     1.3210 ca         1 QTN      -0.073500
      8 C10        -14.2720    25.6420     2.4290 cp         1 QTN      -0.154500
      9 C11        -15.6880    25.6890     2.3880 ca         1 QTN      -0.073500
     10 C12        -16.4000    25.2020     1.2780 ca         1 QTN      -0.121500
     11 C13        -13.5190    26.1570     3.6210 cp         1 QTN       0.430500
     12 C14        -13.3680    26.1870     5.9250 ca         1 QTN       0.348500
     13 C15        -12.6520    26.6160     7.9490 cc         1 QTN       0.662100
     14 C16        -13.4820    25.9280    10.1580 c5         1 QTN       0.110300
     15 C19        -11.1510    23.4610    11.3280 c5         1 QTN       0.147300
     16 C20        -10.8070    24.0930     9.9510 c5         1 QTN       0.147600
     17 C21        -13.1220    24.3880    10.2030 c5         1 QTN       0.101300
     18 C22        -12.2520    27.0040     5.9120 ca         1 QTN       0.063400
     19 C24        -12.3750    27.0210     3.5180 ca         1 QTN       0.058000
     20 S          -19.8920    23.2070    -5.2770 s6         1 QTN       0.445700
     21 C          -19.7420    24.9200    -5.8460 c3         1 QTN      -0.048100
     22 C25        -20.5070    22.1050    -6.5750 c3         1 QTN      -0.048100
     23 N          -18.5960    22.6040    -4.3820 nu         1 QTN      -1.118000
     24 C6         -18.3990    24.2570    -2.5610 ca         1 QTN      -0.224500
     25 C5         -17.6870    24.7430    -1.4510 ca         1 QTN      -0.040000
     26 C4         -16.4920    24.1180    -1.0160 cp         1 QTN      -0.123000
     27 N1         -14.0120    25.7640     4.8280 nb         1 QTN      -0.664000
     28 C17        -13.2410    26.3850    11.6240 c5         1 QTN       0.151600
     29 N2         -13.6240    25.9550     7.2280 na         1 QTN      -0.468300
     30 C18        -12.4940    24.1940    11.6250 c5         1 QTN       0.085300
     31 N3         -11.7860    27.2990     7.1930 nd         1 QTN      -0.587100
     32 Cl         -11.7640    27.6280     1.9740 cl         1 QTN      -0.186000
     33 O          -21.0730    23.2190    -4.1570 oh         1 QTN      -0.717700
     34 O2         -12.1840    25.5270    12.0900 os         1 QTN      -0.408000
     35 C23        -11.7280    27.4500     4.6940 ca         1 QTN      -0.027000
     36 O3         -10.1770    23.7020    12.3500 oh         1 QTN      -0.681000
     37 O1         -12.5680    26.6790     9.3100 os         1 QTN      -0.378600
     38 H1         -16.3900    21.6280    -3.3770 ha         1 QTN       0.096000
     39 H2         -15.1380    22.4660    -1.4290 ha         1 QTN       0.103500
     40 H3         -13.7640    24.1530    -0.6210 ha         1 QTN       0.112500
     41 H4         -12.5180    24.9800     1.3240 ha         1 QTN       0.117000
     42 H5         -16.2390    26.1130     3.2250 ha         1 QTN       0.117000
     43 H6         -17.4860    25.2520     1.2910 ha         1 QTN       0.112500
     44 H7         -14.5180    26.1200     9.8470 h1         1 QTN       0.059700
     45 H8         -11.3200    22.3820    11.2110 h1         1 QTN       0.042700
     46 H9         -10.0500    23.5220     9.3980 h1         1 QTN       0.081700
     47 H10        -10.4760    25.1360    10.0400 h1         1 QTN       0.081700
     48 H11        -13.9990    23.7460    10.0420 h1         1 QTN       0.082700
     49 H12        -19.5800    25.5690    -4.9790 h1         1 QTN       0.098033
     50 H13        -18.8880    24.9800    -6.5290 h1         1 QTN       0.098033
     51 H14        -20.6660    25.1990    -6.3660 h1         1 QTN       0.098033
     52 H15        -19.7130    21.9740    -7.3200 h1         1 QTN       0.098033
     53 H16        -20.7660    21.1430    -6.1190 h1         1 QTN       0.098033
     54 H17        -21.3890    22.5630    -7.0360 h1         1 QTN       0.098033
     55 H18        -18.1510    21.8150    -4.8420 hn         1 QTN       0.408000
     56 H19        -19.3120    24.7620    -2.8540 ha         1 QTN       0.096000
     57 H20        -18.0610    25.6220    -0.9320 ha         1 QTN       0.103500
     58 H21        -12.9390    27.4380    11.7040 h1         1 QTN       0.070200
     59 H22        -14.1330    26.2250    12.2460 h1         1 QTN       0.070200
     60 H23        -14.3610    25.3820     7.6010 hn         1 QTN       0.366000
     61 H24        -13.1530    23.6770    12.3350 h1         1 QTN       0.059700
     62 H26        -21.8850    23.5060    -4.6230 ho         1 QTN       0.439000
     63 H27        -10.8630    28.1070     4.6590 ha         1 QTN       0.148000
     64 H28        -10.4260    24.5800    12.7260 ho         1 QTN       0.510000
@<TRIPOS>BOND
     1     1     2 ar  
     2     1    23 1   
     3     1    24 ar  
     4     2     3 ar  
     5     2    38 1   
     6     3    26 ar  
     7     3    39 1   
     8     4    16 1   
     9     4    17 1   
    10     5     6 ar  
    11     5    10 ar  
    12     5    26 1   
    13     6     7 ar  
    14     6    40 1   
    15     7     8 ar  
    16     7    41 1   
    17     8     9 ar  
    18     8    11 1   
    19     9    10 ar  
    20     9    42 1   
    21    10    43 1   
    22    11    19 ar  
    23    11    27 ar  
    24    12    18 ar  
    25    12    27 ar  
    26    12    29 1   
    27    13    29 1   
    28    13    31 2   
    29    13    37 1   
    30    14    17 1   
    31    14    28 1   
    32    14    37 1   
    33    14    44 1   
    34    15    16 1   
    35    15    30 1   
    36    15    36 1   
    37    15    45 1   
    38    16    46 1   
    39    16    47 1   
    40    17    30 1   
    41    17    48 1   
    42    18    31 1   
    43    18    35 ar  
    44    19    32 1   
    45    19    35 ar  
    46    20    21 1   
    47    20    22 1   
    48    20    23 3   
    49    20    33 1   
    50    21    49 1   
    51    21    50 1   
    52    21    51 1   
    53    22    52 1   
    54    22    53 1   
    55    22    54 1   
    56    23    55 1   
    57    24    25 ar  
    58    24    56 1   
    59    25    26 ar  
    60    25    57 1   
    61    28    34 1   
    62    28    58 1   
    63    28    59 1   
    64    29    60 1   
    65    30    34 1   
    66    30    61 1   
    67    33    62 1   
    68    35    63 1   
    69    36    64 1   
@<TRIPOS>SUBSTRUCTURE
     1 QTN         1 TEMP              0 ****  ****    0 ROOT
