@<TRIPOS>MOLECULE
QTN
   64    69     1     0     0
SMALL
abcg2


@<TRIPOS>ATOM
      1 C1         -17.6070    23.5590    -3.5190 ca         1 QTN       0.334000
      2 C2         -16.5540    22.7810    -2.9940 ca         1 QTN      -0.224500
      3 C3         -15.8680    23.1620    -1.8580 ca         1 QTN      -0.040000
      4 O4         -12.1210    24.1420     9.1360 os         1 QTN      -0.432000
      5 C7         -15.4630    24.7320     0.0570 cp         1 QTN       0.012000
      6 C8         -14.1050    24.4400     0.2230 ca         1 QTN      -0.121500
      7 C9         -13.4110    24.8420     1.3530 ca         1 QTN      -0.073500
      8 C10        -14.0480    25.5560     2.3660 cp         1 QTN      -0.154500
      9 C11        -15.4070    25.8310     2.2190 ca         1 QTN      -0.073500
     10 C12        -16.0980    25.4310     1.0890 ca         1 QTN      -0.121500
     11 C13        -13.3540    25.9900     3.5980 cp         1 QTN       0.430500
     12 C14        -13.3900    26.0920     5.8470 ca         1 QTN       0.348500
     13 C15        -12.8830    26.5280     7.9290 cc         1 QTN       0.662100
     14 C16        -13.8090    25.7470     9.9710 c5         1 QTN       0.110300
     15 C19        -11.1750    23.7730    11.2240 c5         1 QTN       0.147300
     16 C20        -10.8990    24.3190     9.8290 c5         1 QTN       0.147600
     17 C21        -13.1910    24.3230    10.0330 c5         1 QTN       0.101300
     18 C22        -12.1940    26.8200     5.9550 ca         1 QTN       0.063400
     19 C24        -12.1570    26.7260     3.5980 ca         1 QTN       0.058000
     20 S          -20.2540    23.4220    -4.5380 s6         1 QTN       0.445700
     21 C          -20.1980    24.6670    -5.8440 c3         1 QTN      -0.048100
     22 C25        -20.4120    21.8800    -5.4680 c3         1 QTN      -0.048100
     23 N          -18.2760    23.2200    -4.6540 nu         1 QTN      -1.118000
     24 C6         -17.9280    24.7360    -2.8110 ca         1 QTN      -0.224500
     25 C5         -17.2450    25.0940    -1.6630 ca         1 QTN      -0.040000
     26 C4         -16.1940    24.3260    -1.1530 cp         1 QTN      -0.123000
     27 N1         -13.9670    25.6840     4.7470 nb         1 QTN      -0.664000
     28 C17        -13.7790    26.1770    11.4240 c5         1 QTN       0.151600
     29 N2         -13.8140    25.9180     7.1410 na         1 QTN      -0.468300
     30 C18        -12.6130    24.2440    11.4600 c5         1 QTN       0.085300
     31 N3         -11.9040    27.0780     7.2690 nd         1 QTN      -0.587100
     32 CL         -11.4110    27.2040     2.1080 cl         1 QTN      -0.186000
     33 O          -22.0310    23.6050    -4.4510 oh         1 QTN      -0.717700
     34 O2         -12.6370    25.5590    11.9680 os         1 QTN      -0.408000
     35 C23        -11.5550    27.1520     4.7760 ca         1 QTN      -0.027000
     36 O3         -10.2250    24.2390    12.1340 oh         1 QTN      -0.681000
     37 O1         -12.9690    26.6320     9.2370 os         1 QTN      -0.378600
     38 H1         -16.2810    21.8580    -3.4930 ha         1 QTN       0.096000
     39 H2         -15.0760    22.5160    -1.4950 ha         1 QTN       0.103500
     40 H3         -13.5690    23.9040    -0.5500 ha         1 QTN       0.112500
     41 H4         -12.3640    24.5850     1.4420 ha         1 QTN       0.117000
     42 H5         -15.9320    26.3680     2.9990 ha         1 QTN       0.117000
     43 H6         -17.1550    25.6550     1.0190 ha         1 QTN       0.112500
     44 H7         -14.8280    25.7590     9.5760 h1         1 QTN       0.059700
     45 H8         -11.1910    22.6760    11.1760 h1         1 QTN       0.042700
     46 H9         -10.1210    23.7700     9.2970 h1         1 QTN       0.081700
     47 H10        -10.6020    25.3740     9.8820 h1         1 QTN       0.081700
     48 H11        -13.9520    23.5670     9.8310 h1         1 QTN       0.082700
     49 H12        -20.1350    25.6420    -5.3640 h1         1 QTN       0.098033
     50 H13        -19.3240    24.5030    -6.4620 h1         1 QTN       0.098033
     51 H14        -21.1110    24.6070    -6.4290 h1         1 QTN       0.098033
     52 H15        -19.6430    21.8150    -6.2330 h1         1 QTN       0.098033
     53 H16        -20.3050    21.0570    -4.7650 h1         1 QTN       0.098033
     54 H17        -21.3950    21.8530    -5.9260 h1         1 QTN       0.098033
     55 H18        -17.9520    22.3380    -5.0330 hn         1 QTN       0.408000
     56 H19        -18.6950    25.4020    -3.1880 ha         1 QTN       0.096000
     57 H20        -17.5180    26.0220    -1.1760 ha         1 QTN       0.103500
     58 H21        -13.7110    27.2570    11.5550 h1         1 QTN       0.070200
     59 H22        -14.6980    25.8280    11.9150 h1         1 QTN       0.070200
     60 H23        -14.6550    25.4350     7.4210 hn         1 QTN       0.366000
     61 H24        -13.1900    23.5700    12.1040 h1         1 QTN       0.059700
     62 H26        -22.2180    23.6650    -3.5080 ho         1 QTN       0.439000
     63 H27        -10.6400    27.7290     4.7620 ha         1 QTN       0.148000
     64 H28        -10.2960    23.7300    12.9470 ho         1 QTN       0.510000
@<TRIPOS>BOND
     1     1     2 ar  
     2     1    23 1   
     3     1    24 ar  
     4     2     3 ar  
     5     2    38 1   
     6     3    26 ar  
     7     3    39 1   
     8     4    16 1   
     9     4    17 1   
    10     5     6 ar  
    11     5    10 ar  
    12     5    26 1   
    13     6     7 ar  
    14     6    40 1   
    15     7     8 ar  
    16     7    41 1   
    17     8     9 ar  
    18     8    11 1   
    19     9    10 ar  
    20     9    42 1   
    21    10    43 1   
    22    11    19 ar  
    23    11    27 ar  
    24    12    18 ar  
    25    12    27 ar  
    26    12    29 1   
    27    13    29 1   
    28    13    31 2   
    29    13    37 1   
    30    14    17 1   
    31    14    28 1   
    32    14    37 1   
    33    14    44 1   
    34    15    16 1   
    35    15    30 1   
    36    15    36 1   
    37    15    45 1   
    38    16    46 1   
    39    16    47 1   
    40    17    30 1   
    41    17    48 1   
    42    18    31 1   
    43    18    35 ar  
    44    19    32 1   
    45    19    35 ar  
    46    20    21 1   
    47    20    22 1   
    48    20    23 3   
    49    20    33 1   
    50    21    49 1   
    51    21    50 1   
    52    21    51 1   
    53    22    52 1   
    54    22    53 1   
    55    22    54 1   
    56    23    55 1   
    57    24    25 ar  
    58    24    56 1   
    59    25    26 ar  
    60    25    57 1   
    61    28    34 1   
    62    28    58 1   
    63    28    59 1   
    64    29    60 1   
    65    30    34 1   
    66    30    61 1   
    67    33    62 1   
    68    35    63 1   
    69    36    64 1   
@<TRIPOS>SUBSTRUCTURE
     1 QTN         1 TEMP              0 ****  ****    0 ROOT
