@<TRIPOS>MOLECULE
QTO
   43    46     1     0     0
SMALL
abcg2


@<TRIPOS>ATOM
      1 C18        -46.7990   -29.0460     4.7010 ca         1 QTO      -0.350000
      2 C16        -51.1590   -28.7150     5.3020 ca         1 QTO      -0.082500
      3 C17        -49.7980   -28.6830     5.5830 ca         1 QTO      -0.157000
      4 C15        -51.9900   -29.6570     5.8970 ca         1 QTO      -0.149000
      5 C14        -51.4440   -30.5730     6.7930 ca         1 QTO      -0.082500
      6 C13        -50.0840   -30.5600     7.0690 ca         1 QTO      -0.157000
      7 C12        -49.2440   -29.6200     6.4610 ca         1 QTO       0.327000
      8 C10        -46.7790   -29.3480     6.0560 ca         1 QTO       0.390900
      9 C20        -44.6450   -27.7450     0.7140 cy         1 QTO      -0.087000
     10 C19        -44.2140   -28.3370     2.0520 c5         1 QTO       0.249800
     11 C02        -45.8210   -29.7870    -0.2450 c          1 QTO       0.712000
     12 C03        -46.0040   -28.4190     0.4650 c5         1 QTO       0.059000
     13 C04        -46.6230   -28.5270     1.8630 c5         1 QTO       0.214800
     14 C06        -45.5620   -28.8080     4.0740 ca         1 QTO       0.419900
     15 C08        -44.5120   -29.1750     6.0590 ca         1 QTO       0.181900
     16 C21        -44.6050   -26.1880     0.7120 cy         1 QTO      -0.076900
     17 C22        -43.2380   -26.2640    -0.0110 cy         1 QTO      -0.102400
     18 C23        -43.5500   -27.7360    -0.3770 cy         1 QTO      -0.076900
     19 F24        -46.8280   -27.5970    -0.3290 f          1 QTO      -0.272000
     20 N05        -45.4780   -28.5130     2.7640 nh         1 QTO      -0.744300
     21 N07        -44.4000   -28.8710     4.7730 nb         1 QTO      -0.287000
     22 N09        -45.6160   -29.4190     6.7510 nb         1 QTO      -0.322000
     23 N11        -47.8880   -29.6270     6.8130 nu         1 QTO      -0.957900
     24 H181       -47.7160   -29.0200     4.1410 ha         1 QTO       0.136000
     25 H161       -51.5720   -27.9830     4.6180 ha         1 QTO       0.107500
     26 H171       -49.1800   -27.9150     5.1430 ha         1 QTO       0.120500
     27 H151       -53.0490   -29.6730     5.6740 ha         1 QTO       0.107000
     28 H141       -52.0770   -31.3090     7.2730 ha         1 QTO       0.107500
     29 H131       -49.6590   -31.2810     7.7580 ha         1 QTO       0.120500
     30 H192       -43.5480   -27.6740     2.6020 h1         1 QTO       0.063700
     31 H191       -43.7130   -29.2980     1.9150 h1         1 QTO       0.063700
     32 H041       -47.2070   -29.4400     1.9790 h1         1 QTO       0.051200
     33 H042       -47.2750   -27.6670     2.0400 h1         1 QTO       0.051200
     34 H081       -43.5810   -29.2330     6.6160 h5         1 QTO       0.027100
     35 H212       -45.3780   -25.7660     0.0740 hc         1 QTO       0.057450
     36 H211       -44.6400   -25.7050     1.6890 hc         1 QTO       0.057450
     37 H221       -43.0800   -25.5720    -0.8370 hc         1 QTO       0.032200
     38 H222       -42.4000   -26.1850     0.6820 hc         1 QTO       0.032200
     39 H232       -43.9860   -27.8280    -1.3720 hc         1 QTO       0.057450
     40 H231       -42.7500   -28.4690    -0.2690 hc         1 QTO       0.057450
     41 H111       -47.6640   -30.0370     7.7080 hn         1 QTO       0.499000
     42 O01        -46.0610   -29.8390    -1.4700 o          1 QTO      -0.701500
     43 O25        -45.4010   -30.7110     0.4930 o          1 QTO      -0.701500
@<TRIPOS>BOND
     1     1     8 ar  
     2     1    14 ar  
     3     1    24 1   
     4     2     3 ar  
     5     2     4 ar  
     6     2    25 1   
     7     3     7 ar  
     8     3    26 1   
     9     4     5 ar  
    10     4    27 1   
    11     5     6 ar  
    12     5    28 1   
    13     6     7 ar  
    14     6    29 1   
    15     7    23 1   
    16     8    22 ar  
    17     8    23 1   
    18     9    10 1   
    19     9    12 1   
    20     9    16 1   
    21     9    18 1   
    22    10    20 1   
    23    10    30 1   
    24    10    31 1   
    25    11    12 1   
    26    11    42 1   
    27    11    43 1   
    28    12    13 1   
    29    12    19 1   
    30    13    20 1   
    31    13    32 1   
    32    13    33 1   
    33    14    20 1   
    34    14    21 ar  
    35    15    21 ar  
    36    15    22 ar  
    37    15    34 1   
    38    16    17 1   
    39    16    35 1   
    40    16    36 1   
    41    17    18 1   
    42    17    37 1   
    43    17    38 1   
    44    18    39 1   
    45    18    40 1   
    46    23    41 1   
@<TRIPOS>SUBSTRUCTURE
     1 QTO         1 TEMP              0 ****  ****    0 ROOT
