@<TRIPOS>MOLECULE
QTO
   43    46     1     0     0
SMALL
No Charge or Current Charge


@<TRIPOS>ATOM
      1 C18        -46.7620   -29.2920     4.6370 ca         1 QTO      -0.350000
      2 C16        -51.0980   -28.3790     5.5600 ca         1 QTO      -0.082500
      3 C17        -49.7180   -28.5800     5.7420 ca         1 QTO      -0.157000
      4 C15        -52.0190   -29.2590     6.1530 ca         1 QTO      -0.149000
      5 C14        -51.5600   -30.3340     6.9330 ca         1 QTO      -0.082500
      6 C13        -50.1790   -30.5300     7.1130 ca         1 QTO      -0.157000
      7 C12        -49.2510   -29.6660     6.5070 ca         1 QTO       0.327000
      8 C10        -46.7470   -29.5770     6.0030 ca         1 QTO       0.390900
      9 C20        -44.6590   -27.6890     0.5970 cy         1 QTO      -0.087000
     10 C19        -44.2090   -28.2880     1.9580 c5         1 QTO       0.249800
     11 C02        -45.3860   -30.1450    -0.1000 c          1 QTO       0.712000
     12 C03        -45.8460   -28.6830     0.3020 c5         1 QTO       0.059000
     13 C04        -46.5740   -28.7420     1.6890 c5         1 QTO       0.214800
     14 C06        -45.5330   -29.0220     4.0210 ca         1 QTO       0.419900
     15 C08        -44.4780   -29.3550     6.0290 ca         1 QTO       0.181900
     16 C21        -44.9500   -26.1360     0.5590 cy         1 QTO      -0.076900
     17 C22        -43.4450   -25.9540     0.1910 cy         1 QTO      -0.102400
     18 C23        -43.5850   -27.3430    -0.5050 cy         1 QTO      -0.076900
     19 F24        -46.7120   -28.1920    -0.6930 f          1 QTO      -0.272000
     20 N05        -45.4410   -28.7170     2.6480 nh         1 QTO      -0.744300
     21 N07        -44.3830   -29.0480     4.7210 nb         1 QTO      -0.287000
     22 N09        -45.6100   -29.6290     6.7060 nb         1 QTO      -0.322000
     23 N11        -47.8880   -29.8820     6.7200 nu         1 QTO      -0.957900
     24 H181       -47.6850   -29.2960     4.0740 ha         1 QTO       0.136000
     25 H161       -51.4520   -27.5380     4.9670 ha         1 QTO       0.107500
     26 H171       -49.0170   -27.8780     5.3030 ha         1 QTO       0.120500
     27 H151       -53.0860   -29.1040     6.0140 ha         1 QTO       0.107000
     28 H141       -52.2730   -31.0120     7.3980 ha         1 QTO       0.107500
     29 H131       -49.8320   -31.3640     7.7170 ha         1 QTO       0.120500
     30 H192       -43.6570   -27.5540     2.5610 h1         1 QTO       0.063700
     31 H191       -43.5340   -29.1450     1.8250 h1         1 QTO       0.063700
     32 H041       -47.1910   -29.6440     1.7960 h1         1 QTO       0.051200
     33 H042       -47.2220   -27.8660     1.8310 h1         1 QTO       0.051200
     34 H081       -43.5490   -29.3850     6.5950 h5         1 QTO       0.027100
     35 H212       -45.6460   -25.8140    -0.2250 hc         1 QTO       0.057450
     36 H211       -45.2690   -25.6860     1.5050 hc         1 QTO       0.057450
     37 H221       -43.2120   -25.1100    -0.4670 hc         1 QTO       0.032200
     38 H222       -42.7580   -25.9330     1.0450 hc         1 QTO       0.032200
     39 H232       -43.9800   -27.3010    -1.5280 hc         1 QTO       0.057450
     40 H231       -42.6830   -27.9640    -0.5110 hc         1 QTO       0.057450
     41 H111       -47.6810   -30.3840     7.5820 hn         1 QTO       0.499000
     42 O01        -44.2510   -30.3460    -0.5150 o          1 QTO      -0.701500
     43 O25        -46.2030   -31.0590    -0.0600 o          1 QTO      -0.701500
@<TRIPOS>BOND
     1     1     8 ar  
     2     1    14 ar  
     3     1    24 1   
     4     2     3 ar  
     5     2     4 ar  
     6     2    25 1   
     7     3     7 ar  
     8     3    26 1   
     9     4     5 ar  
    10     4    27 1   
    11     5     6 ar  
    12     5    28 1   
    13     6     7 ar  
    14     6    29 1   
    15     7    23 1   
    16     8    22 ar  
    17     8    23 1   
    18     9    10 1   
    19     9    12 1   
    20     9    16 1   
    21     9    18 1   
    22    10    20 1   
    23    10    30 1   
    24    10    31 1   
    25    11    12 1   
    26    11    42 1   
    27    11    43 1   
    28    12    13 1   
    29    12    19 1   
    30    13    20 1   
    31    13    32 1   
    32    13    33 1   
    33    14    20 1   
    34    14    21 ar  
    35    15    21 ar  
    36    15    22 ar  
    37    15    34 1   
    38    16    17 1   
    39    16    35 1   
    40    16    36 1   
    41    17    18 1   
    42    17    37 1   
    43    17    38 1   
    44    18    39 1   
    45    18    40 1   
    46    23    41 1   
@<TRIPOS>SUBSTRUCTURE
     1 QTO         1 TEMP              0 ****  ****    0 ROOT
