@<TRIPOS>MOLECULE
QTQ
   17    17     1     0     0
SMALL
No Charge or Current Charge


@<TRIPOS>ATOM
      1 C1          21.6780    32.6770    -9.4190 c5         1 QTQ       0.146800
      2 C2          21.0870    31.4280    -8.6550 c5         1 QTQ       0.146800
      3 C3          19.7660    31.1130    -9.3980 c5         1 QTQ      -0.278400
      4 O2          22.0580    32.3850   -10.7630 oh         1 QTQ      -0.645000
      5 O3          20.8220    31.6860    -7.2760 oh         1 QTQ      -0.645000
      6 C           20.5290    33.7140    -9.4070 c5         1 QTQ      -0.278400
      7 S           18.9880    32.7530    -9.7460 s6         1 QTQ       1.060000
      8 H1          22.5490    33.0770    -8.8790 h1         1 QTQ       0.055200
      9 H2          21.7740    30.5720    -8.7340 h1         1 QTQ       0.055200
     10 H3          19.0550    30.5190    -8.8150 h1         1 QTQ       0.121700
     11 H4          19.9350    30.6450   -10.3740 h1         1 QTQ       0.121700
     12 H5          22.8950    31.8690   -10.7250 ho         1 QTQ       0.454000
     13 H6          21.6880    31.7040    -6.8110 ho         1 QTQ       0.454000
     14 H7          20.6180    34.4890   -10.1740 h1         1 QTQ       0.121700
     15 H8          20.3890    34.1730    -8.4230 h1         1 QTQ       0.121700
     16 O1          17.9760    33.0610    -8.7260 o          1 QTQ      -0.505500
     17 O           18.6350    32.8430   -11.1690 o          1 QTQ      -0.505500
@<TRIPOS>BOND
     1     1     2 1   
     2     1     4 1   
     3     1     6 1   
     4     1     8 1   
     5     2     3 1   
     6     2     5 1   
     7     2     9 1   
     8     3     7 1   
     9     3    10 1   
    10     3    11 1   
    11     4    12 1   
    12     5    13 1   
    13     6     7 1   
    14     6    14 1   
    15     6    15 1   
    16     7    16 2   
    17     7    17 2   
@<TRIPOS>SUBSTRUCTURE
     1 QTQ         1 TEMP              0 ****  ****    0 ROOT
