@<TRIPOS>MOLECULE
QTQ
   17    17     1     0     0
SMALL
bcc


@<TRIPOS>ATOM
      1 C1          21.6670    32.6850    -9.3790 c5         1 QTQ       0.123600
      2 C2          21.0990    31.4210    -8.6930 c5         1 QTQ       0.123600
      3 C3          19.7910    31.1140    -9.4020 c5         1 QTQ      -0.167600
      4 O2          21.9920    32.4210   -10.7190 oh         1 QTQ      -0.582800
      5 O3          20.8050    31.6740    -7.3440 oh         1 QTQ      -0.582800
      6 C           20.5400    33.7010    -9.3730 c5         1 QTQ      -0.167600
      7 S           19.0490    32.7360    -9.7410 s6         1 QTQ       0.980000
      8 H1          22.5260    33.0710    -8.8150 h1         1 QTQ       0.055200
      9 H2          21.7950    30.5800    -8.8120 h1         1 QTQ       0.055200
     10 H3          19.1000    30.5270    -8.8000 h1         1 QTQ       0.121700
     11 H4          19.9600    30.6180   -10.3550 h1         1 QTQ       0.121700
     12 H5          22.7100    31.7790   -10.7450 ho         1 QTQ       0.415000
     13 H6          21.6250    31.8700    -6.8780 ho         1 QTQ       0.415000
     14 H7          20.6520    34.4810   -10.1250 h1         1 QTQ       0.121700
     15 H8          20.4150    34.1530    -8.3910 h1         1 QTQ       0.121700
     16 O1          18.0040    33.0310    -8.7630 o          1 QTQ      -0.576300
     17 O           18.7120    32.8480   -11.1590 o          1 QTQ      -0.576300
@<TRIPOS>BOND
     1     1     2 1   
     2     1     4 1   
     3     1     6 1   
     4     1     8 1   
     5     2     3 1   
     6     2     5 1   
     7     2     9 1   
     8     3     7 1   
     9     3    10 1   
    10     3    11 1   
    11     4    12 1   
    12     5    13 1   
    13     6     7 1   
    14     6    14 1   
    15     6    15 1   
    16     7    16 2   
    17     7    17 2   
@<TRIPOS>SUBSTRUCTURE
     1 QTQ         1 TEMP              0 ****  ****    0 ROOT
