@<TRIPOS>MOLECULE
QTS
   30    32     1     0     0
SMALL
bcc


@<TRIPOS>ATOM
      1 N1          36.1010    30.5260    23.6170 nc         1 QTS      -0.641100
      2 C4          33.1040    30.2370    26.4480 ca         1 QTS      -0.127000
      3 C5          32.9550    29.7180    25.1660 ca         1 QTS      -0.131000
      4 C6          34.0250    29.8700    24.3010 ca         1 QTS      -0.085200
      5 C8          32.7000    29.7570    21.0760 ca         1 QTS      -0.114300
      6 C10         31.6550    31.8510    20.4740 ca         1 QTS      -0.120000
      7 C13         32.6440    29.3650    19.7450 ca         1 QTS      -0.102000
      8 C           35.4740    29.9120    22.6450 cd         1 QTS       0.639700
      9 C1          35.2160    30.5180    24.6690 ca         1 QTS       0.106400
     10 C11         31.6080    31.4340    19.1520 ca         1 QTS       0.036400
     11 C12         32.0980    30.1960    18.7750 ca         1 QTS      -0.120000
     12 C2          35.3470    31.0300    25.9560 ca         1 QTS      -0.085000
     13 C3          34.2820    30.8810    26.8340 ca         1 QTS      -0.144000
     14 C9          32.2000    31.0080    21.4290 ca         1 QTS      -0.102000
     15 N2          34.2220    29.4830    22.9900 na         1 QTS      -0.188300
     16 CL          30.9310    32.4860    17.9520 cl         1 QTS      -0.107400
     17 H1          32.2920    30.1400    27.1560 ha         1 QTS       0.129000
     18 H2          32.0390    29.2220    24.8680 ha         1 QTS       0.131000
     19 H3          32.4740    28.4300    22.7460 h1         1 QTS       0.061700
     20 H4          33.7380    27.9640    21.6470 h1         1 QTS       0.061700
     21 H5          31.2690    32.8200    20.7600 ha         1 QTS       0.150500
     22 H6          33.0340    28.3990    19.4480 ha         1 QTS       0.138500
     23 H7          36.9470    29.8870    21.2950 hn         1 QTS       0.418800
     24 H8          35.6070    28.9820    20.8400 hn         1 QTS       0.418800
     25 H9          32.0660    29.8800    17.7410 ha         1 QTS       0.150500
     26 H10         36.2560    31.5320    26.2610 ha         1 QTS       0.145000
     27 H11         34.3630    31.2740    27.8400 ha         1 QTS       0.130000
     28 H12         32.2320    31.3410    22.4590 ha         1 QTS       0.138500
     29 C7          33.2720    28.8320    22.1200 c3         1 QTS       0.102600
     30 N           35.9530    29.7520    21.3890 nv         1 QTS      -0.892800
@<TRIPOS>BOND
     1     1     8 2   
     2     1     9 1   
     3     2     3 ar  
     4     2    13 ar  
     5     2    17 1   
     6     3     4 ar  
     7     3    18 1   
     8     4     9 ar  
     9     4    15 1   
    10     5     7 ar  
    11     5    14 ar  
    12     5    29 1   
    13     6    10 ar  
    14     6    14 ar  
    15     6    21 1   
    16     7    11 ar  
    17     7    22 1   
    18     8    15 1   
    19     8    30 1   
    20     9    12 ar  
    21    10    11 ar  
    22    10    16 1   
    23    11    25 1   
    24    12    13 ar  
    25    12    26 1   
    26    13    27 1   
    27    14    28 1   
    28    15    29 1   
    29    19    29 1   
    30    20    29 1   
    31    23    30 1   
    32    24    30 1   
@<TRIPOS>SUBSTRUCTURE
     1 QTS         1 TEMP              0 ****  ****    0 ROOT
