@<TRIPOS>MOLECULE
QTS
   30    32     1     0     0
SMALL
No Charge or Current Charge


@<TRIPOS>ATOM
      1 N1          36.2620    30.4850    23.7300 nc         1 QTS      -0.641100
      2 C4          33.0010    30.2960    26.3370 ca         1 QTS      -0.109000
      3 C5          32.9510    29.7800    25.0260 ca         1 QTS      -0.113000
      4 C6          34.1060    29.8900    24.2350 ca         1 QTS      -0.085200
      5 C8          32.6830    29.7520    21.0550 ca         1 QTS      -0.114300
      6 C10         31.6370    31.8910    20.5030 ca         1 QTS      -0.102000
      7 C13         32.4590    29.3170    19.7320 ca         1 QTS      -0.084000
      8 C           35.6440    29.8890    22.7170 cd         1 QTS       0.639700
      9 C1          35.2590    30.4810    24.6920 ca         1 QTS       0.106400
     10 C11         31.4250    31.4520    19.1870 ca         1 QTS       0.128000
     11 C12         31.8340    30.1660    18.8010 ca         1 QTS      -0.102000
     12 C2          35.3240    30.9980    25.9940 ca         1 QTS      -0.067000
     13 C3          34.1830    30.9010    26.8200 ca         1 QTS      -0.126000
     14 C9          32.2620    31.0450    21.4360 ca         1 QTS      -0.084000
     15 N2          34.3280    29.4840    22.9440 na         1 QTS      -0.217600
     16 Cl          30.6420    32.5120    18.0220 cl         1 QTS      -0.199000
     17 H1          32.1250    30.2280    26.9790 ha         1 QTS       0.111000
     18 H2          32.0430    29.3170    24.6490 ha         1 QTS       0.113000
     19 H3          32.5880    28.3310    22.6660 h1         1 QTS       0.061700
     20 H4          33.8840    28.0190    21.5160 h1         1 QTS       0.061700
     21 H5          31.3160    32.8860    20.8010 ha         1 QTS       0.132500
     22 H6          32.7700    28.3210    19.4230 ha         1 QTS       0.120500
     23 H7          37.2930    29.7930    21.5800 hn         1 QTS       0.474000
     24 H8          35.9090    29.0030    20.9150 hn         1 QTS       0.474000
     25 H9          31.6660    29.8260    17.7820 ha         1 QTS       0.132500
     26 H10         36.2360    31.4650    26.3570 ha         1 QTS       0.127000
     27 H11         34.2150    31.2970    27.8330 ha         1 QTS       0.112000
     28 H12         32.4150    31.3970    22.4530 ha         1 QTS       0.120500
     29 C7          33.3590    28.8170    22.0560 c3         1 QTS       0.131900
     30 N           36.2860    29.6880    21.5570 nv         1 QTS      -1.003200
@<TRIPOS>BOND
     1     1     8 2   
     2     1     9 1   
     3     2     3 ar  
     4     2    13 ar  
     5     2    17 1   
     6     3     4 ar  
     7     3    18 1   
     8     4     9 ar  
     9     4    15 1   
    10     5     7 ar  
    11     5    14 ar  
    12     5    29 1   
    13     6    10 ar  
    14     6    14 ar  
    15     6    21 1   
    16     7    11 ar  
    17     7    22 1   
    18     8    15 1   
    19     8    30 1   
    20     9    12 ar  
    21    10    11 ar  
    22    10    16 1   
    23    11    25 1   
    24    12    13 ar  
    25    12    26 1   
    26    13    27 1   
    27    14    28 1   
    28    15    29 1   
    29    19    29 1   
    30    20    29 1   
    31    23    30 1   
    32    24    30 1   
@<TRIPOS>SUBSTRUCTURE
     1 QTS         1 TEMP              0 ****  ****    0 ROOT
