@<TRIPOS>MOLECULE
QTT
   60    62     1     0     0
SMALL
bcc


@<TRIPOS>ATOM
      1 N1          34.9730    20.9930    19.5000 n3         1 QTT      -0.683600
      2 C1          35.8390    19.8710    19.2070 c3         1 QTT       0.154100
      3 O1          36.6440    18.4140    24.5380 o          1 QTT      -0.837800
      4 O2          36.9140    18.6330    22.3390 o          1 QTT      -0.837800
      5 C2          33.2320    25.6160    19.2200 ca         1 QTT      -0.264300
      6 C3          38.2990    24.9310    22.8860 ca         1 QTT      -0.276300
      7 C4          32.3460    24.7260    18.6360 ca         1 QTT      -0.099000
      8 C5          37.2740    25.0740    23.8060 ca         1 QTT      -0.105000
      9 C6          34.5380    25.1970    19.4690 ca         1 QTT       0.421600
     10 C7          38.1970    23.9320    21.9220 ca         1 QTT       0.420600
     11 C8          32.7850    23.4480    18.3230 ca         1 QTT      -0.258300
     12 C9          36.1840    24.2220    23.7320 ca         1 QTT      -0.269300
     13 C10         31.5770    19.5170    20.5550 c6         1 QTT      -0.068400
     14 C11         31.9080    19.1460    21.9930 c6         1 QTT      -0.071400
     15 C12         32.8470    19.6510    19.7220 c6         1 QTT      -0.112400
     16 C13         32.9090    20.1280    22.5910 c6         1 QTT      -0.113400
     17 C15         34.6430    21.7380    18.3000 c3         1 QTT       0.126500
     18 N2          34.9520    23.9740    19.1560 nb         1 QTT      -0.637000
     19 N3          37.1480    23.1170    21.8580 nb         1 QTT      -0.604000
     20 C17         36.5040    19.0120    23.4530 c          1 QTT       0.930600
     21 C18         34.1020    23.1100    18.6060 ca         1 QTT       0.434600
     22 C19         36.1570    23.2550    22.7330 ca         1 QTT       0.449600
     23 C20         33.8200    20.6760    20.3320 c6         1 QTT       0.197500
     24 C21         34.1980    20.2050    21.7530 c6         1 QTT       0.202500
     25 N4          35.2740    20.9780    22.3610 n3         1 QTT      -0.660600
     26 H2          36.1640    19.3960    20.1310 h1         1 QTT       0.042033
     27 H3          35.3860    19.1050    18.5610 h1         1 QTT       0.042033
     28 H4          36.7330    20.2310    18.6940 h1         1 QTT       0.042033
     29 H6          32.9230    26.6200    19.4790 ha         1 QTT       0.128000
     30 H7          39.1660    25.5790    22.9110 ha         1 QTT       0.121000
     31 H8          31.3260    25.0230    18.4290 ha         1 QTT       0.123000
     32 H9          37.3260    25.8380    24.5720 ha         1 QTT       0.116000
     33 H10         32.1200    22.7220    17.8750 ha         1 QTT       0.135000
     34 H11         35.3670    24.3020    24.4370 ha         1 QTT       0.130000
     35 H12         31.0310    20.4670    20.5410 hc         1 QTT       0.022700
     36 H13         30.9130    18.7730    20.1100 hc         1 QTT       0.022700
     37 H14         31.0000    19.1160    22.6000 hc         1 QTT       0.034200
     38 H15         32.3330    18.1370    22.0190 hc         1 QTT       0.034200
     39 H16         32.5880    19.9420    18.7010 hc         1 QTT       0.035200
     40 H17         33.3360    18.6740    19.6540 hc         1 QTT       0.035200
     41 H18         33.1430    19.8320    23.6160 hc         1 QTT       0.038200
     42 H19         32.4440    21.1190    22.6540 hc         1 QTT       0.038200
     43 H20         36.5810    21.0680    23.9550 h1         1 QTT       0.013200
     44 H21         35.0660    20.3260    24.3800 h1         1 QTT       0.013200
     45 H22         33.9420    21.2130    17.6320 h1         1 QTT       0.030200
     46 H23         35.5680    21.8620    17.7290 h1         1 QTT       0.030200
     47 H24         34.4060    22.7430    21.6940 h1         1 QTT       0.022700
     48 H25         34.2770    22.5320    23.4290 h1         1 QTT       0.022700
     49 H26         33.2540    21.6100    20.4330 h1         1 QTT       0.034700
     50 H27         34.5830    19.1840    21.6640 h1         1 QTT       0.099700
     51 H29         39.6490    22.7130    20.9180 hc         1 QTT       0.045367
     52 H30         38.8600    23.8950    19.8870 hc         1 QTT       0.045367
     53 H31         40.0990    24.4170    21.0310 hc         1 QTT       0.045367
     54 H32         36.5140    26.0100    19.6590 hc         1 QTT       0.048700
     55 H33         35.2240    27.1450    20.0870 hc         1 QTT       0.048700
     56 H34         35.6560    25.8320    21.1790 hc         1 QTT       0.048700
     57 C14         35.8100    20.3880    23.5700 c3         1 QTT       0.024800
     58 C16         34.9450    22.3700    22.5680 c3         1 QTT       0.129500
     59 C02         35.5350    26.1020    20.1270 c3         1 QTT      -0.143400
     60 C01         39.2650    23.7330    20.8880 c3         1 QTT      -0.139400
@<TRIPOS>BOND
     1     1     2 1   
     2     1    17 1   
     3     1    23 1   
     4     2    26 1   
     5     2    27 1   
     6     2    28 1   
     7     3    20 1   
     8     4    20 1   
     9     5     7 ar  
    10     5     9 ar  
    11     5    29 1   
    12     6     8 ar  
    13     6    10 ar  
    14     6    30 1   
    15     7    11 ar  
    16     7    31 1   
    17     8    12 ar  
    18     8    32 1   
    19     9    18 ar  
    20     9    59 1   
    21    10    19 ar  
    22    10    60 1   
    23    11    21 ar  
    24    11    33 1   
    25    12    22 ar  
    26    12    34 1   
    27    13    14 1   
    28    13    15 1   
    29    13    35 1   
    30    13    36 1   
    31    14    16 1   
    32    14    37 1   
    33    14    38 1   
    34    15    23 1   
    35    15    39 1   
    36    15    40 1   
    37    16    24 1   
    38    16    41 1   
    39    16    42 1   
    40    17    21 1   
    41    17    45 1   
    42    17    46 1   
    43    18    21 ar  
    44    19    22 ar  
    45    20    57 1   
    46    22    58 1   
    47    23    24 1   
    48    23    49 1   
    49    24    25 1   
    50    24    50 1   
    51    25    57 1   
    52    25    58 1   
    53    43    57 1   
    54    44    57 1   
    55    47    58 1   
    56    48    58 1   
    57    51    60 1   
    58    52    60 1   
    59    53    60 1   
    60    54    59 1   
    61    55    59 1   
    62    56    59 1   
@<TRIPOS>SUBSTRUCTURE
     1 QTT         1 TEMP              0 ****  ****    0 ROOT
