@<TRIPOS>MOLECULE
QTT
   60    62     1     0     0
SMALL
No Charge or Current Charge


@<TRIPOS>ATOM
      1 N1          34.8790    20.7240    19.3680 n3         1 QTT      -0.683600
      2 C1          35.5750    19.4470    19.0760 c3         1 QTT       0.154100
      3 O1          35.5990    17.9010    23.9220 o          1 QTT      -0.732500
      4 O2          37.4710    18.4680    23.0240 o          1 QTT      -0.732500
      5 C2          33.3970    25.5890    18.8460 ca         1 QTT      -0.181000
      6 C3          38.4900    24.8380    23.5210 ca         1 QTT      -0.193000
      7 C4          32.3850    24.6370    18.6540 ca         1 QTT      -0.081000
      8 C5          37.7270    24.3300    24.5830 ca         1 QTT      -0.087000
      9 C6          34.7430    25.1860    18.7810 ca         1 QTT       0.356300
     10 C7          38.1230    24.5250    22.1990 ca         1 QTT       0.355300
     11 C8          32.7680    23.3090    18.4120 ca         1 QTT      -0.175000
     12 C9          36.6220    23.5240    24.2730 ca         1 QTT      -0.186000
     13 C10         31.3650    19.7420    20.7750 c6         1 QTT      -0.068400
     14 C11         31.7800    19.2770    22.1880 c6         1 QTT      -0.071400
     15 C12         32.5740    19.7360    19.8110 c6         1 QTT      -0.112400
     16 C13         32.9290    20.1470    22.7480 c6         1 QTT      -0.113400
     17 C15         34.5890    21.5240    18.1360 c3         1 QTT       0.126500
     18 N2          35.1110    23.9100    18.5420 nb         1 QTT      -0.637000
     19 N3          37.0590    23.7500    21.9020 nb         1 QTT      -0.604000
     20 C17         36.3760    18.7480    23.4990 c          1 QTT       0.720000
     21 C18         34.1380    22.9790    18.3720 ca         1 QTT       0.369300
     22 C19         36.3210    23.2470    22.9240 ca         1 QTT       0.384300
     23 C20         33.7380    20.6270    20.3500 c6         1 QTT       0.197500
     24 C21         34.1700    20.1460    21.7970 c6         1 QTT       0.202500
     25 N4          35.3360    20.9130    22.3820 n3         1 QTT      -0.660600
     26 H2          35.8950    18.9450    19.9980 h1         1 QTT       0.042033
     27 H3          34.9290    18.7610    18.5130 h1         1 QTT       0.042033
     28 H4          36.4760    19.6290    18.4750 h1         1 QTT       0.042033
     29 H6          33.1440    26.6280    19.0440 ha         1 QTT       0.110000
     30 H7          39.3520    25.4690    23.7150 ha         1 QTT       0.103000
     31 H8          31.3340    24.9180    18.6970 ha         1 QTT       0.105000
     32 H9          37.9840    24.5570    25.6160 ha         1 QTT       0.098000
     33 H10         32.0150    22.5400    18.2660 ha         1 QTT       0.117000
     34 H11         36.0030    23.1130    25.0660 ha         1 QTT       0.112000
     35 H12         30.9370    20.7530    20.8260 hc         1 QTT       0.022700
     36 H13         30.5750    19.0870    20.3840 hc         1 QTT       0.022700
     37 H14         30.9140    19.3240    22.8630 hc         1 QTT       0.034200
     38 H15         32.0930    18.2240    22.1550 hc         1 QTT       0.034200
     39 H16         32.2410    20.0870    18.8270 hc         1 QTT       0.035200
     40 H17         32.9170    18.7020    19.6740 hc         1 QTT       0.035200
     41 H18         33.2030    19.7700    23.7410 hc         1 QTT       0.038200
     42 H19         32.5610    21.1720    22.8940 hc         1 QTT       0.038200
     43 H20         36.8740    20.8060    23.8570 h1         1 QTT       0.013200
     44 H21         35.2860    20.3640    24.4500 h1         1 QTT       0.013200
     45 H22         33.8270    21.0170    17.5300 h1         1 QTT       0.030200
     46 H23         35.4920    21.5590    17.5120 h1         1 QTT       0.030200
     47 H24         34.6750    22.8060    21.6350 h1         1 QTT       0.022700
     48 H25         34.3400    22.5400    23.3370 h1         1 QTT       0.022700
     49 H26         33.3140    21.6320    20.4820 h1         1 QTT       0.034700
     50 H27         34.4690    19.0940    21.6830 h1         1 QTT       0.099700
     51 H29         39.9940    24.9640    21.2030 hc         1 QTT       0.045367
     52 H30         38.6840    24.5350    20.0940 hc         1 QTT       0.045367
     53 H31         38.7010    26.1290    20.8690 hc         1 QTT       0.045367
     54 H32         36.7970    25.8560    18.5170 hc         1 QTT       0.048700
     55 H33         35.6060    27.1630    18.5710 hc         1 QTT       0.048700
     56 H34         36.0630    26.3210    20.0620 hc         1 QTT       0.048700
     57 C14         35.9590    20.2610    23.5890 c3         1 QTT       0.024800
     58 C16         35.0960    22.3850    22.5570 c3         1 QTT       0.129500
     59 C02         35.8650    26.1850    18.9920 c3         1 QTT      -0.143400
     60 C01         38.9180    25.0660    21.0250 c3         1 QTT      -0.139400
@<TRIPOS>BOND
     1     1     2 1   
     2     1    17 1   
     3     1    23 1   
     4     2    26 1   
     5     2    27 1   
     6     2    28 1   
     7     3    20 1   
     8     4    20 1   
     9     5     7 ar  
    10     5     9 ar  
    11     5    29 1   
    12     6     8 ar  
    13     6    10 ar  
    14     6    30 1   
    15     7    11 ar  
    16     7    31 1   
    17     8    12 ar  
    18     8    32 1   
    19     9    18 ar  
    20     9    59 1   
    21    10    19 ar  
    22    10    60 1   
    23    11    21 ar  
    24    11    33 1   
    25    12    22 ar  
    26    12    34 1   
    27    13    14 1   
    28    13    15 1   
    29    13    35 1   
    30    13    36 1   
    31    14    16 1   
    32    14    37 1   
    33    14    38 1   
    34    15    23 1   
    35    15    39 1   
    36    15    40 1   
    37    16    24 1   
    38    16    41 1   
    39    16    42 1   
    40    17    21 1   
    41    17    45 1   
    42    17    46 1   
    43    18    21 ar  
    44    19    22 ar  
    45    20    57 1   
    46    22    58 1   
    47    23    24 1   
    48    23    49 1   
    49    24    25 1   
    50    24    50 1   
    51    25    57 1   
    52    25    58 1   
    53    43    57 1   
    54    44    57 1   
    55    47    58 1   
    56    48    58 1   
    57    51    60 1   
    58    52    60 1   
    59    53    60 1   
    60    54    59 1   
    61    55    59 1   
    62    56    59 1   
@<TRIPOS>SUBSTRUCTURE
     1 QTT         1 TEMP              0 ****  ****    0 ROOT
