@<TRIPOS>MOLECULE
QTU
   17    17     1     0     0
SMALL
bcc


@<TRIPOS>ATOM
      1 CH          14.4070    18.0750    25.6680 c          1 QTU       0.928600
      2 OH          13.3900    17.8660    26.3590 o          1 QTU      -0.842300
      3 C01         15.1760    19.3820    25.9490 c3         1 QTU      -0.209400
      4 C02         15.2620    19.7520    27.4280 c3         1 QTU       0.009900
      5 C03         16.5510    17.1910    29.9000 cc         1 QTU      -0.149000
      6 C04         17.6980    17.1740    29.1690 cd         1 QTU      -0.148100
      7 C06         15.9970    18.7440    28.2520 cd         1 QTU       0.022600
      8 C07         15.5800    18.0890    29.3720 cc         1 QTU      -0.174000
      9 S01         17.6000    18.2500    27.8350 ss         1 QTU      -0.123800
     10 O1          14.8470    17.3520    24.7510 o          1 QTU      -0.842300
     11 H1          16.1790    19.3310    25.5160 hc         1 QTU       0.020200
     12 H2          14.6660    20.1970    25.4230 hc         1 QTU       0.020200
     13 H3          15.7440    20.7290    27.5300 hc         1 QTU       0.033200
     14 H4          14.2590    19.8580    27.8420 hc         1 QTU       0.033200
     15 H7          14.6020    18.2440    29.8070 ha         1 QTU       0.148000
     16 H5          16.3980    16.5860    30.7820 ha         1 QTU       0.128000
     17 H6          18.5880    16.5870    29.3370 h4         1 QTU       0.146000
@<TRIPOS>BOND
     1     1     2 1   
     2     1     3 1   
     3     1    10 1   
     4     3     4 1   
     5     3    11 1   
     6     3    12 1   
     7     4     7 1   
     8     4    13 1   
     9     4    14 1   
    10     5     6 2   
    11     5     8 1   
    12     5    16 1   
    13     6     9 1   
    14     6    17 1   
    15     7     8 2   
    16     7     9 1   
    17     8    15 1   
@<TRIPOS>SUBSTRUCTURE
     1 QTU         1 TEMP              0 ****  ****    0 ROOT
