@<TRIPOS>MOLECULE
QTU
   17    17     1     0     0
SMALL
No Charge or Current Charge


@<TRIPOS>ATOM
      1 CH          14.2030    18.1400    25.8070 c          1 QTU       0.718000
      2 OH          12.9930    18.3090    25.8050 o          1 QTU      -0.737000
      3 C01         15.1040    19.3820    25.9250 c3         1 QTU      -0.209400
      4 C02         15.3190    19.7730    27.4070 c3         1 QTU       0.009900
      5 C03         16.5990    17.0940    29.7690 cc         1 QTU      -0.131000
      6 C04         17.8510    17.2830    29.2450 cd         1 QTU      -0.275000
      7 C06         16.0870    18.7520    28.2080 cd         1 QTU      -0.122300
      8 C07         15.6080    17.9210    29.1880 cc         1 QTU      -0.156000
      9 S01         17.8340    18.5290    27.9810 ss         1 QTU       0.166000
     10 O1          14.7320    17.0430    25.7210 o          1 QTU      -0.737000
     11 H1          16.0990    19.1880    25.5040 hc         1 QTU       0.020200
     12 H2          14.6040    20.2500    25.4780 hc         1 QTU       0.020200
     13 H3          15.8540    20.7310    27.4400 hc         1 QTU       0.033200
     14 H4          14.3430    19.9580    27.8730 hc         1 QTU       0.033200
     15 H7          14.5690    17.8880    29.5020 ha         1 QTU       0.130000
     16 H5          16.3720    16.3810    30.5570 ha         1 QTU       0.110000
     17 H6          18.7740    16.7840    29.5100 h4         1 QTU       0.128000
@<TRIPOS>BOND
     1     1     2 1   
     2     1     3 1   
     3     1    10 1   
     4     3     4 1   
     5     3    11 1   
     6     3    12 1   
     7     4     7 1   
     8     4    13 1   
     9     4    14 1   
    10     5     6 2   
    11     5     8 1   
    12     5    16 1   
    13     6     9 1   
    14     6    17 1   
    15     7     8 2   
    16     7     9 1   
    17     8    15 1   
@<TRIPOS>SUBSTRUCTURE
     1 QTU         1 TEMP              0 ****  ****    0 ROOT
