@<TRIPOS>MOLECULE
QTV
   27    28     1     0     0
SMALL
abcg2


@<TRIPOS>ATOM
      1 N1          35.4290    30.3440    23.7380 nc         1 QTV      -0.605000
      2 N3          33.4730    29.6720    22.9800 na         1 QTV      -0.159500
      3 C4          33.2610    30.0270    24.2670 cd         1 QTV      -0.126000
      4 C5          32.4640    29.1890    22.0510 c3         1 QTV       0.120900
      5 C6          32.1210    30.2070    20.9960 ca         1 QTV      -0.144300
      6 C7          32.1910    29.8710    19.6500 ca         1 QTV      -0.064500
      7 C8          31.8680    30.7930    18.6640 ca         1 QTV      -0.149000
      8 C10         31.4010    32.4300    20.3810 ca         1 QTV      -0.149000
      9 C11         31.7200    31.4930    21.3500 ca         1 QTV      -0.064500
     10 C2          34.7960    29.8810    22.6960 cd         1 QTV       0.421800
     11 C3          34.4900    30.4370    24.7050 cc         1 QTV       0.139500
     12 C9          31.4830    32.0620    19.0510 ca         1 QTV       0.189000
     13 F1          31.1810    32.9710    18.1100 f          1 QTV      -0.170000
     14 N2          34.7920    30.9050    26.0090 no         1 QTV       0.624500
     15 O1          33.8800    30.9490    26.8100 o          1 QTV      -0.392000
     16 O2          35.9300    31.2320    26.2530 o          1 QTV      -0.392000
     17 H1          32.2970    29.9580    24.7430 h4         1 QTV       0.186000
     18 H2          31.5850    28.9250    22.6400 h1         1 QTV       0.073700
     19 H3          32.8250    28.2680    21.5920 h1         1 QTV       0.073700
     20 H4          32.5110    28.8790    19.3580 ha         1 QTV       0.121000
     21 H5          31.9270    30.5310    17.6160 ha         1 QTV       0.140000
     22 H6          31.0910    33.4290    20.6570 ha         1 QTV       0.140000
     23 H7          36.4710    29.7180    21.4250 hc         1 QTV       0.063033
     24 H8          35.1720    28.5870    21.0320 hc         1 QTV       0.063033
     25 H9          35.0130    30.2880    20.6080 hc         1 QTV       0.063033
     26 H10         31.6530    31.7780    22.3930 ha         1 QTV       0.121000
     27 C1          35.3920    29.6020    21.3670 c3         1 QTV      -0.125400
@<TRIPOS>BOND
     1     1    10 2   
     2     1    11 1   
     3     2     3 1   
     4     2     4 1   
     5     2    10 1   
     6     3    11 2   
     7     3    17 1   
     8     4     5 1   
     9     4    18 1   
    10     4    19 1   
    11     5     6 ar  
    12     5     9 ar  
    13     6     7 ar  
    14     6    20 1   
    15     7    12 ar  
    16     7    21 1   
    17     8     9 ar  
    18     8    12 ar  
    19     8    22 1   
    20     9    26 1   
    21    10    27 1   
    22    11    14 1   
    23    12    13 1   
    24    14    15 1   
    25    14    16 1   
    26    23    27 1   
    27    24    27 1   
    28    25    27 1   
@<TRIPOS>SUBSTRUCTURE
     1 QTV         1 TEMP              0 ****  ****    0 ROOT
