@<TRIPOS>MOLECULE
QTV
   27    28     1     0     0
SMALL
No Charge or Current Charge


@<TRIPOS>ATOM
      1 N1          35.4190    30.3860    23.7770 nc         1 QTV      -0.605000
      2 N3          33.4490    29.6740    23.0070 na         1 QTV      -0.159500
      3 C4          33.2810    29.9320    24.3570 cd         1 QTV      -0.126000
      4 C5          32.4180    29.1930    22.0740 c3         1 QTV       0.120900
      5 C6          32.0880    30.1880    20.9640 ca         1 QTV      -0.144300
      6 C7          32.0250    29.7550    19.6240 ca         1 QTV      -0.064500
      7 C8          31.7310    30.6700    18.5980 ca         1 QTV      -0.149000
      8 C10         31.5520    32.4570    20.2390 ca         1 QTV      -0.149000
      9 C11         31.8460    31.5450    21.2670 ca         1 QTV      -0.064500
     10 C2          34.7690    29.9670    22.7050 cd         1 QTV       0.421800
     11 C3          34.5040    30.3690    24.8160 cc         1 QTV       0.139500
     12 C9          31.4960    32.0170    18.9080 ca         1 QTV       0.189000
     13 F1          31.2130    32.8950    17.9210 f          1 QTV      -0.170000
     14 N2          34.8280    30.7680    26.1910 no         1 QTV       0.624500
     15 O1          33.9220    30.7130    27.0370 o          1 QTV      -0.392000
     16 O2          35.9860    31.1420    26.4450 o          1 QTV      -0.392000
     17 H1          32.3430    29.7960    24.8830 h4         1 QTV       0.186000
     18 H2          31.5030    28.9760    22.6400 h1         1 QTV       0.073700
     19 H3          32.7630    28.2470    21.6370 h1         1 QTV       0.073700
     20 H4          32.2080    28.7110    19.3750 ha         1 QTV       0.121000
     21 H5          31.6840    30.3370    17.5640 ha         1 QTV       0.140000
     22 H6          31.3660    33.5030    20.4720 ha         1 QTV       0.140000
     23 H7          36.4970    29.9660    21.4130 hc         1 QTV       0.063033
     24 H8          35.2060    28.8650    20.9070 hc         1 QTV       0.063033
     25 H9          35.0240    30.6140    20.6700 hc         1 QTV       0.063033
     26 H10         31.8850    31.8940    22.2980 ha         1 QTV       0.121000
     27 C1          35.4100    29.8460    21.3510 c3         1 QTV      -0.125400
@<TRIPOS>BOND
     1     1    10 2   
     2     1    11 1   
     3     2     3 1   
     4     2     4 1   
     5     2    10 1   
     6     3    11 2   
     7     3    17 1   
     8     4     5 1   
     9     4    18 1   
    10     4    19 1   
    11     5     6 ar  
    12     5     9 ar  
    13     6     7 ar  
    14     6    20 1   
    15     7    12 ar  
    16     7    21 1   
    17     8     9 ar  
    18     8    12 ar  
    19     8    22 1   
    20     9    26 1   
    21    10    27 1   
    22    11    14 1   
    23    12    13 1   
    24    14    15 1   
    25    14    16 1   
    26    23    27 1   
    27    24    27 1   
    28    25    27 1   
@<TRIPOS>SUBSTRUCTURE
     1 QTV         1 TEMP              0 ****  ****    0 ROOT
