@<TRIPOS>MOLECULE
QTW
   78    80     1     0     0
SMALL
abcg2


@<TRIPOS>ATOM
      1 CG          -1.1300     1.3360   -30.3480 c3         1 QTW      -0.053700
      2 CB          -1.9150     0.1630   -29.7560 c3         1 QTW      -0.068400
      3 CA          -1.3160    -0.4160   -28.4670 c3         1 QTW       0.111500
      4 C           -2.2910    -1.4770   -27.9530 c          1 QTW       0.588100
      5 O           -3.3550    -1.2030   -27.4490 o          1 QTW      -0.546100
      6 N            0.0480    -0.8190   -28.6770 n8         1 QTW      -1.039200
      7 CD1         -1.7910     1.7860   -31.6480 c3         1 QTW      -0.089600
      8 CD2         -1.0140     2.4990   -29.3690 c3         1 QTW      -0.089600
      9 C1          -7.0960    -4.4680   -29.1910 c6         1 QTW       0.156600
     10 C13        -11.4350    -5.5150   -25.3010 cc         1 QTW       0.174300
     11 C14        -10.4060    -4.6670   -24.9800 cd         1 QTW      -0.197000
     12 C15        -11.6760    -6.9310   -24.8860 c3         1 QTW       0.087700
     13 C17         -9.7480    -7.7650   -23.6260 c          1 QTW       0.610700
     14 C18         -9.1780    -8.0180   -22.2680 ca         1 QTW      -0.153600
     15 C19         -9.5490    -7.2750   -21.1480 ca         1 QTW      -0.073000
     16 C2          -7.6200    -3.0880   -28.7920 c6         1 QTW      -0.083700
     17 C20         -8.9670    -7.5300   -19.9150 ca         1 QTW      -0.119000
     18 C21         -8.0160    -8.5340   -19.7870 ca         1 QTW      -0.089000
     19 C22         -7.6400    -9.2740   -20.9010 ca         1 QTW      -0.119000
     20 C23         -8.2090    -9.0110   -22.1360 ca         1 QTW      -0.073000
     21 C3          -6.4670    -2.0930   -28.8340 c6         1 QTW       0.140300
     22 C4          -5.7200    -2.1700   -30.1750 c6         1 QTW       0.125300
     23 C5          -5.3460    -3.5980   -30.5710 c6         1 QTW       0.177300
     24 C6          -4.0480    -4.0990   -29.9620 c3         1 QTW       0.174600
     25 C9          -9.9260    -2.3030   -25.7040 c3         1 QTW       0.080600
     26 N10        -10.6980    -3.5330   -25.6390 na         1 QTW       0.127800
     27 N11        -11.8160    -3.6590   -26.3230 nd         1 QTW      -0.205800
     28 N12        -12.2720    -4.8510   -26.1240 nc         1 QTW      -0.364000
     29 N16        -10.9990    -7.2720   -23.6600 ns         1 QTW      -0.507900
     30 N3S         -1.8880    -2.7800   -28.1540 ns         1 QTW      -0.628300
     31 O17         -9.1050    -8.0070   -24.6380 o          1 QTW      -0.597100
     32 O1S         -3.1710    -4.0070   -26.3160 o          1 QTW      -0.534500
     33 O2S         -1.9760    -5.2420   -28.1410 o          1 QTW      -0.534500
     34 O3          -6.9660    -0.7780   -28.6710 oh         1 QTW      -0.673000
     35 O4          -6.5300    -1.6660   -31.2110 oh         1 QTW      -0.714000
     36 O5          -6.4240    -4.4870   -30.4330 os         1 QTW      -0.429000
     37 O6          -4.0900    -3.9880   -28.5230 os         1 QTW      -0.569700
     38 S           -2.7550    -4.1180   -27.6850 s6         1 QTW       1.437500
     39 H1          -0.1210     0.9870   -30.5840 hc         1 QTW       0.059700
     40 H2          -2.9400     0.4850   -29.5530 hc         1 QTW       0.045700
     41 H3          -1.9810    -0.6340   -30.5060 hc         1 QTW       0.045700
     42 H4          -1.3320     0.3580   -27.6940 h1         1 QTW       0.097700
     43 H5           0.4730    -1.2570   -27.8730 hn         1 QTW       0.422500
     44 H6           0.1810    -1.4010   -29.4940 hn         1 QTW       0.422500
     45 H8          -1.2280     2.5980   -32.1110 hc         1 QTW       0.035533
     46 H9          -1.8490     0.9690   -32.3700 hc         1 QTW       0.035533
     47 H10         -2.8070     2.1460   -31.4710 hc         1 QTW       0.035533
     48 H11         -0.4570     2.2250   -28.4730 hc         1 QTW       0.035533
     49 H12         -0.4930     3.3410   -29.8270 hc         1 QTW       0.035533
     50 H13         -2.0010     2.8490   -29.0550 hc         1 QTW       0.035533
     51 H14         -7.9400    -5.1510   -29.3020 h1         1 QTW       0.058700
     52 H15         -6.4680    -4.8740   -28.3880 h1         1 QTW       0.058700
     53 H16         -9.5330    -4.7680   -24.3580 h4         1 QTW       0.171000
     54 H17        -12.7440    -7.0910   -24.7440 h1         1 QTW       0.073200
     55 H18        -10.2730    -6.4730   -21.2270 ha         1 QTW       0.122500
     56 H19         -8.3770    -2.7900   -29.5260 hc         1 QTW       0.078700
     57 H20         -9.2520    -6.9380   -19.0550 ha         1 QTW       0.117000
     58 H21         -7.5650    -8.7330   -18.8240 ha         1 QTW       0.115000
     59 H22         -6.8970   -10.0560   -20.8080 ha         1 QTW       0.117000
     60 H23         -7.9060    -9.5850   -23.0020 ha         1 QTW       0.122500
     61 H24         -5.7710    -2.3300   -28.0240 h1         1 QTW       0.069700
     62 H25         -4.7930    -1.5790   -30.0930 h1         1 QTW       0.025700
     63 H26         -5.1200    -3.5820   -31.6440 h1         1 QTW       0.092700
     64 H27         -3.8810    -5.1410   -30.2390 h1         1 QTW       0.058700
     65 H28         -3.2250    -3.4980   -30.3600 h1         1 QTW       0.058700
     66 H29         -8.8320    -4.1640   -27.4090 hc         1 QTW       0.047200
     67 H30         -7.5170    -3.3050   -26.6430 hc         1 QTW       0.047200
     68 H31         -8.7420    -1.1390   -27.0110 hc         1 QTW       0.068200
     69 H32        -10.0250    -2.0030   -27.8290 hc         1 QTW       0.068200
     70 H33         -9.1840    -2.3530   -24.9080 h1         1 QTW       0.065700
     71 H34        -10.5970    -1.4740   -25.4790 h1         1 QTW       0.065700
     72 H35         -0.9730    -2.9680   -28.5460 hn         1 QTW       0.341500
     73 H36         -6.2450    -0.2120   -28.3730 ho         1 QTW       0.452000
     74 H37         -6.9500    -0.8640   -30.8760 ho         1 QTW       0.522000
     75 H7         -11.3580    -7.6160   -25.6740 h1         1 QTW       0.073200
     76 H38        -11.5110    -7.1450   -22.8030 hn         1 QTW       0.318500
     77 C7          -8.2860    -3.2140   -27.4190 c3         1 QTW      -0.070400
     78 C8          -9.2570    -2.0980   -27.0560 c3         1 QTW      -0.089400
@<TRIPOS>BOND
     1     1     2 1   
     2     1     7 1   
     3     1     8 1   
     4     1    39 1   
     5     2     3 1   
     6     2    40 1   
     7     2    41 1   
     8     3     4 1   
     9     3     6 1   
    10     3    42 1   
    11     4     5 2   
    12     4    30 1   
    13     6    43 1   
    14     6    44 1   
    15     7    45 1   
    16     7    46 1   
    17     7    47 1   
    18     8    48 1   
    19     8    49 1   
    20     8    50 1   
    21     9    16 1   
    22     9    36 1   
    23     9    51 1   
    24     9    52 1   
    25    10    11 2   
    26    10    12 1   
    27    10    28 1   
    28    11    26 1   
    29    11    53 1   
    30    12    29 1   
    31    12    54 1   
    32    12    75 1   
    33    13    14 1   
    34    13    29 1   
    35    13    31 2   
    36    14    15 ar  
    37    14    20 ar  
    38    15    17 ar  
    39    15    55 1   
    40    16    21 1   
    41    16    56 1   
    42    16    77 1   
    43    17    18 ar  
    44    17    57 1   
    45    18    19 ar  
    46    18    58 1   
    47    19    20 ar  
    48    19    59 1   
    49    20    60 1   
    50    21    22 1   
    51    21    34 1   
    52    21    61 1   
    53    22    23 1   
    54    22    35 1   
    55    22    62 1   
    56    23    24 1   
    57    23    36 1   
    58    23    63 1   
    59    24    37 1   
    60    24    64 1   
    61    24    65 1   
    62    25    26 1   
    63    25    70 1   
    64    25    71 1   
    65    25    78 1   
    66    26    27 1   
    67    27    28 2   
    68    29    76 1   
    69    30    38 1   
    70    30    72 1   
    71    32    38 2   
    72    33    38 2   
    73    34    73 1   
    74    35    74 1   
    75    37    38 1   
    76    66    77 1   
    77    67    77 1   
    78    68    78 1   
    79    69    78 1   
    80    77    78 1   
@<TRIPOS>SUBSTRUCTURE
     1 QTW         1 TEMP              0 ****  ****    0 ROOT
