@<TRIPOS>MOLECULE
QTW
   78    80     1     0     0
SMALL
No Charge or Current Charge


@<TRIPOS>ATOM
      1 CG          -1.6600     1.9700   -30.5350 c3         1 QTW      -0.053700
      2 CB          -2.0570     0.5260   -30.1090 c3         1 QTW      -0.068400
      3 CA          -1.1250    -0.1680   -29.0750 c3         1 QTW       0.111500
      4 C           -1.8080    -1.4830   -28.5450 c          1 QTW       0.588100
      5 O           -2.6290    -1.4620   -27.6410 o          1 QTW      -0.546100
      6 N            0.2790    -0.2950   -29.6230 n8         1 QTW      -1.039200
      7 CD1         -2.5800     2.4790   -31.6690 c3         1 QTW      -0.089600
      8 CD2         -1.6540     2.9660   -29.3500 c3         1 QTW      -0.089600
      9 C1          -6.5540    -4.4980   -29.5620 c6         1 QTW       0.156600
     10 C13        -10.6060    -5.7010   -25.0030 cc         1 QTW       0.174300
     11 C14         -9.3530    -5.1830   -24.9110 cd         1 QTW      -0.197000
     12 C15        -11.0290    -7.1400   -24.8360 c3         1 QTW       0.087700
     13 C17        -10.0530    -7.9790   -22.6660 c          1 QTW       0.610700
     14 C18        -10.3450    -8.3390   -21.2220 ca         1 QTW      -0.153600
     15 C19        -11.6480    -8.2510   -20.6680 ca         1 QTW      -0.073000
     16 C2          -7.0250    -3.1770   -28.8880 c6         1 QTW      -0.083700
     17 C20        -11.8780    -8.5930   -19.3240 ca         1 QTW      -0.119000
     18 C21        -10.8180    -9.0250   -18.5120 ca         1 QTW      -0.089000
     19 C22         -9.5240    -9.1170   -19.0460 ca         1 QTW      -0.119000
     20 C23         -9.2890    -8.7770   -20.3890 ca         1 QTW      -0.073000
     21 C3          -5.9680    -2.0410   -29.1180 c6         1 QTW       0.140300
     22 C4          -5.5330    -1.9360   -30.6190 c6         1 QTW       0.125300
     23 C5          -5.1870    -3.3330   -31.2300 c6         1 QTW       0.177300
     24 C6          -3.7750    -3.9050   -30.8500 c3         1 QTW       0.174600
     25 C9          -8.5220    -2.7790   -25.1660 c3         1 QTW       0.080600
     26 N10         -9.5420    -3.8400   -25.1430 na         1 QTW       0.127800
     27 N11        -10.8710    -3.5760   -25.3610 nd         1 QTW      -0.205800
     28 N12        -11.5120    -4.7140   -25.2750 nc         1 QTW      -0.364000
     29 N16        -11.1210    -7.5580   -23.4290 ns         1 QTW      -0.507900
     30 N3S         -1.4000    -2.6380   -29.1400 ns         1 QTW      -0.628300
     31 O17         -8.9290    -8.0550   -23.1420 o          1 QTW      -0.597100
     32 O1S         -2.0490    -4.4540   -27.4750 o          1 QTW      -0.534500
     33 O2S         -1.3390    -5.0570   -29.8560 o          1 QTW      -0.534500
     34 O3          -6.5070    -0.7580   -28.7390 oh         1 QTW      -0.673000
     35 O4          -6.6130    -1.3060   -31.3280 oh         1 QTW      -0.714000
     36 O5          -6.2460    -4.2910   -30.9580 os         1 QTW      -0.429000
     37 O6          -3.5430    -3.8710   -29.4300 os         1 QTW      -0.569700
     38 S           -2.0140    -4.1630   -28.9110 s6         1 QTW       1.437500
     39 H1          -0.6420     1.9380   -30.9430 hc         1 QTW       0.059700
     40 H2          -3.0730     0.5590   -29.6950 hc         1 QTW       0.045700
     41 H3          -2.1160    -0.1090   -31.0020 hc         1 QTW       0.045700
     42 H4          -1.0700     0.4740   -28.1840 h1         1 QTW       0.097700
     43 H5           0.8610    -0.8540   -28.9840 hn         1 QTW       0.422500
     44 H6           0.2820    -0.8230   -30.5040 hn         1 QTW       0.422500
     45 H8          -2.2680     3.4750   -32.0050 hc         1 QTW       0.035533
     46 H9          -2.5420     1.8050   -32.5330 hc         1 QTW       0.035533
     47 H10         -3.6210     2.5420   -31.3290 hc         1 QTW       0.035533
     48 H11         -0.9020     2.6890   -28.6030 hc         1 QTW       0.035533
     49 H12         -1.4140     3.9780   -29.6980 hc         1 QTW       0.035533
     50 H13         -2.6350     2.9970   -28.8600 hc         1 QTW       0.035533
     51 H14         -7.3550    -5.2480   -29.4970 h1         1 QTW       0.058700
     52 H15         -5.6820    -4.9160   -29.0410 h1         1 QTW       0.058700
     53 H16         -8.3940    -5.6420   -24.7070 h4         1 QTW       0.171000
     54 H17        -12.0090    -7.2850   -25.3100 h1         1 QTW       0.073200
     55 H18        -12.4950    -7.9200   -21.2640 ha         1 QTW       0.122500
     56 H19         -7.9720    -2.8840   -29.3620 hc         1 QTW       0.078700
     57 H20        -12.8820    -8.5210   -18.9110 ha         1 QTW       0.117000
     58 H21        -11.0000    -9.2890   -17.4720 ha         1 QTW       0.115000
     59 H22         -8.7010    -9.4520   -18.4190 ha         1 QTW       0.117000
     60 H23         -8.2770    -8.8550   -20.7810 ha         1 QTW       0.122500
     61 H24         -5.0840    -2.2670   -28.5050 h1         1 QTW       0.069700
     62 H25         -4.6390    -1.2980   -30.6790 h1         1 QTW       0.025700
     63 H26         -5.1560    -3.2020   -32.3210 h1         1 QTW       0.092700
     64 H27         -3.6960    -4.9300   -31.2380 h1         1 QTW       0.058700
     65 H28         -3.0300    -3.2920   -31.3750 h1         1 QTW       0.058700
     66 H29         -7.9700    -4.3720   -27.3370 hc         1 QTW       0.047200
     67 H30         -6.4220    -3.7210   -26.8500 hc         1 QTW       0.047200
     68 H31         -7.4230    -1.4890   -26.4800 hc         1 QTW       0.068200
     69 H32         -8.9620    -2.0190   -27.1530 hc         1 QTW       0.068200
     70 H33         -7.6470    -3.1220   -24.6010 h1         1 QTW       0.065700
     71 H34         -8.9290    -1.9050   -24.6430 h1         1 QTW       0.065700
     72 H35         -0.7340    -2.6200   -29.8890 hn         1 QTW       0.341500
     73 H36         -5.8360    -0.3260   -28.1640 ho         1 QTW       0.452000
     74 H37         -7.0510    -0.7850   -30.6080 ho         1 QTW       0.522000
     75 H7         -10.3130    -7.7860   -25.3610 h1         1 QTW       0.073200
     76 H38        -12.0220    -7.5120   -22.9720 hn         1 QTW       0.318500
     77 C7          -7.3490    -3.4690   -27.3810 c3         1 QTW      -0.070400
     78 C8          -8.0830    -2.3560   -26.5890 c3         1 QTW      -0.089400
@<TRIPOS>BOND
     1     1     2 1   
     2     1     7 1   
     3     1     8 1   
     4     1    39 1   
     5     2     3 1   
     6     2    40 1   
     7     2    41 1   
     8     3     4 1   
     9     3     6 1   
    10     3    42 1   
    11     4     5 2   
    12     4    30 1   
    13     6    43 1   
    14     6    44 1   
    15     7    45 1   
    16     7    46 1   
    17     7    47 1   
    18     8    48 1   
    19     8    49 1   
    20     8    50 1   
    21     9    16 1   
    22     9    36 1   
    23     9    51 1   
    24     9    52 1   
    25    10    11 2   
    26    10    12 1   
    27    10    28 1   
    28    11    26 1   
    29    11    53 1   
    30    12    29 1   
    31    12    54 1   
    32    12    75 1   
    33    13    14 1   
    34    13    29 1   
    35    13    31 2   
    36    14    15 ar  
    37    14    20 ar  
    38    15    17 ar  
    39    15    55 1   
    40    16    21 1   
    41    16    56 1   
    42    16    77 1   
    43    17    18 ar  
    44    17    57 1   
    45    18    19 ar  
    46    18    58 1   
    47    19    20 ar  
    48    19    59 1   
    49    20    60 1   
    50    21    22 1   
    51    21    34 1   
    52    21    61 1   
    53    22    23 1   
    54    22    35 1   
    55    22    62 1   
    56    23    24 1   
    57    23    36 1   
    58    23    63 1   
    59    24    37 1   
    60    24    64 1   
    61    24    65 1   
    62    25    26 1   
    63    25    70 1   
    64    25    71 1   
    65    25    78 1   
    66    26    27 1   
    67    27    28 2   
    68    29    76 1   
    69    30    38 1   
    70    30    72 1   
    71    32    38 2   
    72    33    38 2   
    73    34    73 1   
    74    35    74 1   
    75    37    38 1   
    76    66    77 1   
    77    67    77 1   
    78    68    78 1   
    79    69    78 1   
    80    77    78 1   
@<TRIPOS>SUBSTRUCTURE
     1 QTW         1 TEMP              0 ****  ****    0 ROOT
