@<TRIPOS>MOLECULE
QTX
   54    58     1     0     0
SMALL
No Charge or Current Charge


@<TRIPOS>ATOM
      1 N1         -80.6200   -20.1590    81.8370 nc         1 QTX      -0.515100
      2 N3         -87.3660   -19.0980    89.5650 ns         1 QTX      -0.146000
      3 C4         -82.3800   -20.2540    85.0290 ca         1 QTX       0.460900
      4 C5         -84.7470   -20.8910    85.7910 ca         1 QTX       0.296000
      5 C6         -84.9700   -19.9250    86.7940 ca         1 QTX      -0.062000
      6 C7         -86.0700   -20.0130    87.6780 ca         1 QTX      -0.136600
      7 C8         -86.2530   -18.9480    88.7450 c          1 QTX       0.618700
      8 C10        -89.1030   -18.7130    91.2070 ca         1 QTX      -0.148000
      9 C13        -87.7160   -16.5550    92.3290 ca         1 QTX       0.157500
     10 C15        -86.9650   -21.0980    87.5260 ca         1 QTX      -0.102000
     11 C17        -85.6620   -21.9590    85.6440 ca         1 QTX      -0.094300
     12 C20        -80.1740   -18.9610    87.6720 cp         1 QTX      -0.214500
     13 C21        -78.8650   -18.4450    87.8700 ca         1 QTX      -0.030000
     14 C22        -78.4670   -18.0640    89.1590 ca         1 QTX      -0.185000
     15 C24        -81.0040   -19.0540    88.8230 ca         1 QTX       0.387900
     16 N          -79.7350   -19.6590    82.7980 na         1 QTX      -0.033100
     17 C          -78.3710   -19.1980    82.4920 c3         1 QTX       0.085900
     18 O          -85.4580   -18.0220    88.8550 o          1 QTX      -0.563100
     19 C1         -81.7270   -20.4540    82.5350 cd         1 QTX       0.387800
     20 C11        -89.6500   -18.0130    92.2950 ca         1 QTX       0.157500
     21 C12        -88.9580   -16.9320    92.8580 ca         1 QTX      -0.126000
     22 C14        -87.1650   -17.2520    91.2410 ca         1 QTX      -0.148000
     23 C16        -86.7620   -22.0530    86.5180 ca         1 QTX      -0.096000
     24 C18        -85.4790   -23.0260    84.5640 c3         1 QTX      -0.053800
     25 C19        -80.6670   -19.3890    86.3200 cp         1 QTX       0.276500
     26 C2         -80.2890   -19.6450    84.0680 ca         1 QTX       0.169500
     27 C23        -79.3670   -18.2000    90.2240 ca         1 QTX       0.350900
     28 C3         -81.5450   -20.1440    83.9280 ca         1 QTX      -0.391900
     29 C9         -87.8580   -18.3400    90.6640 ca         1 QTX       0.003000
     30 N2         -83.6530   -20.7880    84.9160 nu         1 QTX      -0.937900
     31 N4         -81.9280   -19.8820    86.2390 nb         1 QTX      -0.288000
     32 N5         -80.6170   -18.6860    90.0670 nb         1 QTX      -0.667000
     33 N6         -79.8220   -19.2550    85.2670 nb         1 QTX      -0.227000
     34 Cl1        -86.8410   -15.2030    93.0350 cl         1 QTX      -0.198500
     35 H6         -87.9370   -19.9010    89.3400 hn         1 QTX       0.155000
     36 H5         -84.2890   -19.0850    86.8760 ha         1 QTX       0.162000
     37 H7         -89.6560   -19.5490    90.7850 ha         1 QTX       0.151000
     38 H10        -87.8280   -21.2180    88.1760 ha         1 QTX       0.116000
     39 H15        -78.1650   -18.3400    87.0430 ha         1 QTX       0.135000
     40 H16        -77.4710   -17.6670    89.3370 ha         1 QTX       0.124000
     41 H18        -82.0210   -19.4390    88.7510 h4         1 QTX       0.051100
     42 H2         -78.1690   -19.3130    81.4200 h1         1 QTX       0.061033
     43 H          -78.2710   -18.1420    82.7690 h1         1 QTX       0.061033
     44 H1         -77.6470   -19.7930    83.0620 h1         1 QTX       0.061033
     45 H3         -82.5850   -20.8630    82.0170 h4         1 QTX       0.046800
     46 H8         -89.3810   -16.3910    93.6990 ha         1 QTX       0.147000
     47 H9         -86.1980   -16.9310    90.8690 ha         1 QTX       0.151000
     48 H11        -87.4680   -22.8750    86.4180 ha         1 QTX       0.119000
     49 H14        -84.4960   -23.5050    84.6420 hc         1 QTX       0.048033
     50 H12        -86.2320   -23.8200    84.6440 hc         1 QTX       0.048033
     51 H13        -85.5690   -22.5930    83.5600 hc         1 QTX       0.048033
     52 H17        -79.0810   -17.9100    91.2350 h4         1 QTX       0.019100
     53 H4         -83.7770   -21.3150    84.0560 hn         1 QTX       0.505000
     54 Cl         -91.2070   -18.4950    92.9530 cl         1 QTX      -0.198500
@<TRIPOS>BOND
     1     1    16 1   
     2     1    19 2   
     3     2     7 1   
     4     2    29 1   
     5     2    35 1   
     6     3    28 ar  
     7     3    30 1   
     8     3    31 ar  
     9     4     5 ar  
    10     4    11 ar  
    11     4    30 1   
    12     5     6 ar  
    13     5    36 1   
    14     6     7 1   
    15     6    10 ar  
    16     7    18 2   
    17     8    20 ar  
    18     8    29 ar  
    19     8    37 1   
    20     9    21 ar  
    21     9    22 ar  
    22     9    34 1   
    23    10    23 ar  
    24    10    38 1   
    25    11    23 ar  
    26    11    24 1   
    27    12    13 ar  
    28    12    15 ar  
    29    12    25 1   
    30    13    14 ar  
    31    13    39 1   
    32    14    27 ar  
    33    14    40 1   
    34    15    32 ar  
    35    15    41 1   
    36    16    17 1   
    37    16    26 1   
    38    17    42 1   
    39    17    43 1   
    40    17    44 1   
    41    19    28 1   
    42    19    45 1   
    43    20    21 ar  
    44    20    54 1   
    45    21    46 1   
    46    22    29 ar  
    47    22    47 1   
    48    23    48 1   
    49    24    49 1   
    50    24    50 1   
    51    24    51 1   
    52    25    31 ar  
    53    25    33 ar  
    54    26    28 ar  
    55    26    33 ar  
    56    27    32 ar  
    57    27    52 1   
    58    30    53 1   
@<TRIPOS>SUBSTRUCTURE
     1 QTX         1 TEMP              0 ****  ****    0 ROOT
