@<TRIPOS>MOLECULE
QTX
   54    58     1     0     0
SMALL
abcg2


@<TRIPOS>ATOM
      1 N1         -80.4800   -20.1230    81.9520 nc         1 QTX      -0.515100
      2 N3         -87.2490   -19.1580    89.4860 ns         1 QTX      -0.146000
      3 C4         -82.5240   -20.2940    84.9820 ca         1 QTX       0.460900
      4 C5         -84.7600   -21.0260    85.8120 ca         1 QTX       0.296000
      5 C6         -84.9330   -20.1160    86.8500 ca         1 QTX      -0.062000
      6 C7         -85.9510   -20.2860    87.7840 ca         1 QTX      -0.136600
      7 C8         -86.0240   -19.2830    88.8890 c          1 QTX       0.618700
      8 C10        -88.9760   -18.3370    90.9060 ca         1 QTX      -0.148000
      9 C13        -87.1780   -16.8790    92.4010 ca         1 QTX       0.157500
     10 C15        -86.8140   -21.3760    87.6700 ca         1 QTX      -0.102000
     11 C17        -85.6330   -22.1240    85.6800 ca         1 QTX      -0.094300
     12 C20        -80.5180   -18.8100    87.6360 cp         1 QTX      -0.214500
     13 C21        -79.2130   -18.4160    87.9350 ca         1 QTX      -0.030000
     14 C22        -78.9180   -17.9760    89.2150 ca         1 QTX      -0.185000
     15 C24        -81.4690   -18.7320    88.6590 ca         1 QTX       0.387900
     16 N          -79.7370   -19.5730    82.9520 na         1 QTX      -0.033100
     17 C          -78.4080   -19.0590    82.6940 c3         1 QTX       0.085900
     18 O          -85.0450   -18.6220    89.2210 o          1 QTX      -0.563100
     19 C1         -81.6320   -20.4920    82.4850 cd         1 QTX       0.387800
     20 C11        -89.3990   -17.5770    91.9810 ca         1 QTX       0.157500
     21 C12        -88.5180   -16.8310    92.7540 ca         1 QTX      -0.126000
     22 C14        -86.7020   -17.6230    91.3330 ca         1 QTX      -0.148000
     23 C16        -86.6490   -22.2710    86.6210 ca         1 QTX      -0.096000
     24 C18        -85.4690   -23.1160    84.5660 c3         1 QTX      -0.053800
     25 C19        -80.8900   -19.2880    86.2830 cp         1 QTX       0.276500
     26 C2         -80.4120   -19.5890    84.1260 ca         1 QTX       0.169500
     27 C23        -79.9360   -17.9370    90.1600 ca         1 QTX       0.350900
     28 C3         -81.6590   -20.1840    83.8670 ca         1 QTX      -0.391900
     29 C9         -87.6160   -18.3610    90.5750 ca         1 QTX       0.003000
     30 N2         -83.7480   -20.8700    84.8490 nu         1 QTX      -0.937900
     31 N4         -82.1120   -19.8440    86.1650 nb         1 QTX      -0.288000
     32 N5         -81.1930   -18.3050    89.8920 nb         1 QTX      -0.667000
     33 N6         -79.9940   -19.1280    85.3120 nb         1 QTX      -0.227000
     34 CL1        -86.0310   -15.9570    93.3480 cl         1 QTX      -0.198500
     35 H6         -88.0090   -19.6650    89.0600 hn         1 QTX       0.155000
     36 H5         -84.2750   -19.2700    86.9400 ha         1 QTX       0.162000
     37 H7         -89.6880   -18.9070    90.3250 ha         1 QTX       0.151000
     38 H10        -87.5920   -21.5610    88.3990 ha         1 QTX       0.116000
     39 H15        -78.4500   -18.4620    87.1710 ha         1 QTX       0.135000
     40 H16        -77.9150   -17.6680    89.4820 ha         1 QTX       0.124000
     41 H18        -82.4930   -19.0210    88.4660 h4         1 QTX       0.051100
     42 H2         -78.4550   -18.2510    81.9650 h1         1 QTX       0.061033
     43 H          -78.0070   -18.6820    83.6310 h1         1 QTX       0.061033
     44 H1         -77.7670   -19.8550    82.3170 h1         1 QTX       0.061033
     45 H3         -82.3890   -20.9570    81.8730 h4         1 QTX       0.046800
     46 H8         -88.8630   -16.2410    93.5890 ha         1 QTX       0.147000
     47 H9         -85.6550   -17.6320    91.0890 ha         1 QTX       0.151000
     48 H11        -87.3140   -23.1220    86.5390 ha         1 QTX       0.119000
     49 H14        -84.4660   -23.5520    84.5680 hc         1 QTX       0.048033
     50 H12        -86.1950   -23.9220    84.6610 hc         1 QTX       0.048033
     51 H13        -85.6150   -22.6490    83.5870 hc         1 QTX       0.048033
     52 H17        -79.7350   -17.5980    91.1710 h4         1 QTX       0.019100
     53 H4         -83.9260   -21.2930    83.9520 hn         1 QTX       0.505000
     54 CL         -91.0990   -17.5530    92.3820 cl         1 QTX      -0.198500
@<TRIPOS>BOND
     1     1    16 1   
     2     1    19 2   
     3     2     7 1   
     4     2    29 1   
     5     2    35 1   
     6     3    28 ar  
     7     3    30 1   
     8     3    31 ar  
     9     4     5 ar  
    10     4    11 ar  
    11     4    30 1   
    12     5     6 ar  
    13     5    36 1   
    14     6     7 1   
    15     6    10 ar  
    16     7    18 2   
    17     8    20 ar  
    18     8    29 ar  
    19     8    37 1   
    20     9    21 ar  
    21     9    22 ar  
    22     9    34 1   
    23    10    23 ar  
    24    10    38 1   
    25    11    23 ar  
    26    11    24 1   
    27    12    13 ar  
    28    12    15 ar  
    29    12    25 1   
    30    13    14 ar  
    31    13    39 1   
    32    14    27 ar  
    33    14    40 1   
    34    15    32 ar  
    35    15    41 1   
    36    16    17 1   
    37    16    26 1   
    38    17    42 1   
    39    17    43 1   
    40    17    44 1   
    41    19    28 1   
    42    19    45 1   
    43    20    21 ar  
    44    20    54 1   
    45    21    46 1   
    46    22    29 ar  
    47    22    47 1   
    48    23    48 1   
    49    24    49 1   
    50    24    50 1   
    51    24    51 1   
    52    25    31 ar  
    53    25    33 ar  
    54    26    28 ar  
    55    26    33 ar  
    56    27    32 ar  
    57    27    52 1   
    58    30    53 1   
@<TRIPOS>SUBSTRUCTURE
     1 QTX         1 TEMP              0 ****  ****    0 ROOT
