@<TRIPOS>MOLECULE
QTY
  106   111     1     0     0
SMALL
No Charge or Current Charge


@<TRIPOS>ATOM
      1 C1          63.9640    24.2510     6.3060 c6         1 QTY       0.339200
      2 N1          64.5470    25.1460     7.2940 ns         1 QTY      -0.483400
      3 C2          64.5480    22.7990     6.4200 c6         1 QTY       0.135800
      4 N2          64.0910    29.1050     6.6890 ns         1 QTY      -0.500900
      5 O2          65.9610    22.7310     6.1200 oh         1 QTY      -0.712000
      6 C3          63.7660    21.8400     5.4710 c6         1 QTY       0.137800
      7 N3          62.0480    27.2120     3.3670 na         1 QTY       0.125300
      8 O3          64.2500    20.4890     5.6220 oh         1 QTY      -0.647000
      9 C4          62.2370    21.9060     5.7640 c6         1 QTY       0.111800
     10 N4          62.4390    28.3490     2.7210 nc         1 QTY      -0.208300
     11 O4          61.9700    21.3200     7.0540 oh         1 QTY      -0.691500
     12 C5          61.7810    23.3990     5.6820 c6         1 QTY       0.148300
     13 N5          62.7030    29.2330     3.6450 nd         1 QTY      -0.356500
     14 O5          62.5520    24.2300     6.5910 os         1 QTY      -0.449000
     15 C6          60.2590    23.5840     5.9840 c3         1 QTY       0.171100
     16 N6          63.6140    23.2850    -0.7070 na         1 QTY       0.125300
     17 O6          59.8080    24.9400     5.8050 oh         1 QTY      -0.709500
     18 C7          65.5820    26.0150     7.0650 c          1 QTY       0.615600
     19 N7          64.8580    23.1550    -0.1610 nc         1 QTY      -0.208300
     20 O7          66.0860    26.1600     5.9620 o          1 QTY      -0.596100
     21 C8          66.0760    26.7770     8.3040 c3         1 QTY      -0.145400
     22 N8          65.5880    22.5200    -1.0380 nd         1 QTY      -0.356500
     23 C9          65.8470    28.3110     8.1970 c3         1 QTY      -0.151900
     24 N9          65.3030    20.0510    -3.1920 ns         1 QTY      -0.500900
     25 C10         64.3730    28.6520     7.9550 c          1 QTY       0.601600
     26 N10         64.2940    14.6370    -4.9920 ns         1 QTY      -0.483400
     27 O10         63.5200    28.5400     8.8220 o          1 QTY      -0.614100
     28 C11         62.7490    29.4040     6.1730 c3         1 QTY       0.089700
     29 C12         62.4880    28.6670     4.8850 cd         1 QTY       0.158300
     30 C13         62.0740    27.3760     4.7290 cc         1 QTY      -0.165000
     31 C14         61.7160    25.9830     2.6360 c5         1 QTY       0.031300
     32 C15         60.8500    26.1860     1.3560 c5         1 QTY       0.142100
     33 O15         61.8030    26.3040     0.2830 os         1 QTY      -0.435500
     34 C16         62.9000    25.3930     0.5360 c5         1 QTY       0.139300
     35 C17         62.5240    23.9600     0.0100 c5         1 QTY       0.031300
     36 C18         62.0720    23.2240     1.3050 c5         1 QTY       0.142100
     37 C19         62.9830    25.2360     2.0870 c5         1 QTY       0.139300
     38 O19         62.8620    23.8180     2.3520 os         1 QTY      -0.435500
     39 C20         63.5550    22.7210    -1.9570 cc         1 QTY      -0.165000
     40 C21         64.8200    22.2440    -2.1500 cd         1 QTY       0.158300
     41 C22         65.3640    21.5100    -3.3510 c3         1 QTY       0.089700
     42 O22         65.8410    19.5050    -5.3320 o          1 QTY      -0.614100
     43 C23         65.5430    19.1500    -4.2010 c          1 QTY       0.601600
     44 C24         65.4430    17.6750    -3.7990 c3         1 QTY      -0.151900
     45 C25         64.1610    17.0060    -4.3700 c3         1 QTY      -0.145400
     46 O25         63.7620    15.1700    -2.8460 o          1 QTY      -0.596100
     47 C26         64.0650    15.5270    -3.9760 c          1 QTY       0.615600
     48 C27         64.2990    13.1860    -4.8560 c6         1 QTY       0.339200
     49 O27         63.0870    12.7750    -7.0090 oh         1 QTY      -0.712000
     50 C28         64.2830    12.4770    -6.2520 c6         1 QTY       0.135800
     51 O28         64.4890    10.2760    -7.3320 oh         1 QTY      -0.647000
     52 C29         64.4180    10.9340    -6.0570 c6         1 QTY       0.137800
     53 O29         66.8650    10.8990    -6.0060 oh         1 QTY      -0.691500
     54 C30         65.6240    11.4110    -3.8800 c6         1 QTY       0.148300
     55 O30         65.5080    12.8320    -4.1540 os         1 QTY      -0.449000
     56 C31         65.6890    10.5960    -5.2190 c6         1 QTY       0.111800
     57 C32         66.8590    11.1690    -2.9500 c3         1 QTY       0.171100
     58 HN10        64.4930    15.0230    -5.9050 hn         1 QTY       0.322000
     59 H13         61.8240    26.6040     5.4430 h4         1 QTY       0.191500
     60 H14         61.1650    25.3360     3.3270 h1         1 QTY       0.106200
     61 H16         63.8230    25.7860     0.0860 h1         1 QTY       0.123200
     62 H17         61.6730    24.0310    -0.6790 h1         1 QTY       0.106200
     63 H19         63.9230    25.6180     2.5120 h1         1 QTY       0.123200
     64 H11         62.6650    30.4850     6.0010 h1         1 QTY       0.069950
     65 H11A        61.9850    29.1170     6.9080 h1         1 QTY       0.069950
     66 H20         62.6690    22.7030    -2.5780 h4         1 QTY       0.191500
     67 H27         63.4200    12.8770    -4.2700 h2         1 QTY       0.076200
     68 HO27        63.0250    12.0570    -7.6840 ho         1 QTY       0.522000
     69 H28         65.1660    12.8270    -6.8080 h1         1 QTY       0.071700
     70 HO28        65.4540    10.2460    -7.5340 ho         1 QTY       0.448000
     71 H29         63.5360    10.5770    -5.5040 h1         1 QTY       0.044200
     72 HO29        67.6410    10.4890    -5.5580 ho         1 QTY       0.502000
     73 H22         64.7840    21.7990    -4.2380 h1         1 QTY       0.069950
     74 H32         66.9480    10.0890    -2.7740 h1         1 QTY       0.026700
     75 H22A        66.4070    21.8080    -3.5160 h1         1 QTY       0.069950
     76 H32A        67.7650    11.4900    -3.4820 h1         1 QTY       0.026700
     77 H30         64.7310    11.0920    -3.3220 h1         1 QTY       0.053200
     78 H31         65.6680     9.5230    -4.9750 h1         1 QTY       0.034700
     79 HO31        67.6160    11.7130    -1.2150 ho         1 QTY       0.507000
     80 H24         65.4260    17.5850    -2.7060 hc         1 QTY       0.068450
     81 H24A        66.3170    17.1460    -4.1970 hc         1 QTY       0.068450
     82 H15         60.2230    27.0870     1.4030 h1         1 QTY       0.062450
     83 H25         63.2860    17.5300    -3.9660 hc         1 QTY       0.071700
     84 H15A        60.1910    25.3300     1.1620 h1         1 QTY       0.062450
     85 H25A        64.1760    17.1010    -5.4620 hc         1 QTY       0.071700
     86 H6          59.6950    22.9150     5.3200 h1         1 QTY       0.026700
     87 H6A         60.0680    23.2590     7.0150 h1         1 QTY       0.026700
     88 H18         62.2560    22.1420     1.2670 h1         1 QTY       0.062450
     89 H8          65.5740    26.3990     9.2030 hc         1 QTY       0.071700
     90 H18A        61.0080    23.3770     1.5230 h1         1 QTY       0.062450
     91 H8A         67.1530    26.5980     8.4050 hc         1 QTY       0.071700
     92 H9          66.4630    28.7010     7.3770 hc         1 QTY       0.068450
     93 H9A         66.1630    28.7730     9.1400 hc         1 QTY       0.068450
     94 H1          64.1350    24.6480     5.2930 h2         1 QTY       0.076200
     95 H2          64.3810    22.4630     7.4540 h1         1 QTY       0.071700
     96 H3          63.9290    22.1780     4.4360 h1         1 QTY       0.044200
     97 H4          61.7080    21.3400     4.9830 h1         1 QTY       0.034700
     98 H5          61.9540    23.7560     4.6600 h1         1 QTY       0.053200
     99 HN1         64.1760    25.1060     8.2330 hn         1 QTY       0.322000
    100 HN2         64.8720    29.1670     6.0450 hn         1 QTY       0.319500
    101 HN9         65.0780    19.6730    -2.2790 hn         1 QTY       0.319500
    102 HO2         66.1420    21.7720     5.9690 ho         1 QTY       0.522000
    103 HO3         63.9810    19.9910     4.8160 ho         1 QTY       0.448000
    104 HO4         62.6060    20.5690     7.1320 ho         1 QTY       0.502000
    105 HO6         58.8860    24.9820     6.1510 ho         1 QTY       0.507000
    106 O31         66.7650    11.8620    -1.6900 oh         1 QTY      -0.709500
@<TRIPOS>BOND
     1     1     2 1   
     2     1     3 1   
     3     1    14 1   
     4     1    94 1   
     5     2    18 1   
     6     2    99 1   
     7     3     5 1   
     8     3     6 1   
     9     3    95 1   
    10     4    25 1   
    11     4    28 1   
    12     4   100 1   
    13     5   102 1   
    14     6     8 1   
    15     6     9 1   
    16     6    96 1   
    17     7    10 1   
    18     7    30 1   
    19     7    31 1   
    20     8   103 1   
    21     9    11 1   
    22     9    12 1   
    23     9    97 1   
    24    10    13 2   
    25    11   104 1   
    26    12    14 1   
    27    12    15 1   
    28    12    98 1   
    29    13    29 1   
    30    15    17 1   
    31    15    86 1   
    32    15    87 1   
    33    16    19 1   
    34    16    35 1   
    35    16    39 1   
    36    17   105 1   
    37    18    20 2   
    38    18    21 1   
    39    19    22 2   
    40    21    23 1   
    41    21    89 1   
    42    21    91 1   
    43    22    40 1   
    44    23    25 1   
    45    23    92 1   
    46    23    93 1   
    47    24    41 1   
    48    24    43 1   
    49    24   101 1   
    50    25    27 2   
    51    26    47 1   
    52    26    48 1   
    53    26    58 1   
    54    28    29 1   
    55    28    64 1   
    56    28    65 1   
    57    29    30 2   
    58    30    59 1   
    59    31    32 1   
    60    31    37 1   
    61    31    60 1   
    62    32    33 1   
    63    32    82 1   
    64    32    84 1   
    65    33    34 1   
    66    34    35 1   
    67    34    37 1   
    68    34    61 1   
    69    35    36 1   
    70    35    62 1   
    71    36    38 1   
    72    36    88 1   
    73    36    90 1   
    74    37    38 1   
    75    37    63 1   
    76    39    40 2   
    77    39    66 1   
    78    40    41 1   
    79    41    73 1   
    80    41    75 1   
    81    42    43 2   
    82    43    44 1   
    83    44    45 1   
    84    44    80 1   
    85    44    81 1   
    86    45    47 1   
    87    45    83 1   
    88    45    85 1   
    89    46    47 2   
    90    48    50 1   
    91    48    55 1   
    92    48    67 1   
    93    49    50 1   
    94    49    68 1   
    95    50    52 1   
    96    50    69 1   
    97    51    52 1   
    98    51    70 1   
    99    52    56 1   
   100    52    71 1   
   101    53    56 1   
   102    53    72 1   
   103    54    55 1   
   104    54    56 1   
   105    54    57 1   
   106    54    77 1   
   107    56    78 1   
   108    57    74 1   
   109    57    76 1   
   110    57   106 1   
   111    79   106 1   
@<TRIPOS>SUBSTRUCTURE
     1 QTY         1 TEMP              0 ****  ****    0 ROOT
