@<TRIPOS>MOLECULE
QTY
  106   111     1     0     0
SMALL
bcc


@<TRIPOS>ATOM
      1 C1          63.3940    24.7210     8.4330 c6         1 QTY       0.316000
      2 N1          63.9070    26.0030     8.7810 ns         1 QTY      -0.550400
      3 C2          63.1370    23.8710     9.6740 c6         1 QTY       0.112600
      4 N2          64.5490    29.4740     5.0720 ns         1 QTY      -0.567900
      5 O2          64.3610    23.6900    10.3360 oh         1 QTY      -0.589800
      6 C3          62.5380    22.5410     9.2240 c6         1 QTY       0.114600
      7 N3          63.1390    26.1610     2.7040 na         1 QTY       0.103900
      8 O3          62.3110    21.7700    10.3770 oh         1 QTY      -0.584800
      9 C4          61.2780    22.7660     8.3910 c6         1 QTY       0.088600
     10 N4          63.4690    26.8400     1.6200 nc         1 QTY      -0.208300
     11 O4          60.2750    23.3000     9.2220 oh         1 QTY      -0.569300
     12 C5          61.6350    23.7010     7.2300 c6         1 QTY       0.125100
     13 N5          63.6570    28.0680     1.9650 nd         1 QTY      -0.356500
     14 O5          62.1960    24.9040     7.7130 os         1 QTY      -0.402600
     15 C6          60.4290    24.0520     6.3860 c3         1 QTY       0.147900
     16 N6          64.0190    22.3950    -1.1050 na         1 QTY       0.103900
     17 O6          60.8460    24.7960     5.2640 oh         1 QTY      -0.587300
     18 C7          64.7160    26.7150     7.9630 c          1 QTY       0.682600
     19 N7          65.2550    22.7300    -0.7820 nc         1 QTY      -0.208300
     20 O7          65.1530    26.2730     6.9130 o          1 QTY      -0.596100
     21 C8          65.0780    28.0980     8.4590 c3         1 QTY      -0.145400
     22 N8          66.0270    22.3710    -1.7500 nd         1 QTY      -0.356500
     23 C9          65.3770    29.0350     7.3030 c3         1 QTY      -0.151900
     24 N9          65.9740    19.8010    -3.9810 ns         1 QTY      -0.567900
     25 C10         64.2310    29.0700     6.3140 c          1 QTY       0.668600
     26 N10         64.1580    14.5540    -5.0940 ns         1 QTY      -0.550400
     27 O10         63.0900    28.7700     6.6370 o          1 QTY      -0.614100
     28 C11         63.5850    29.5090     3.9960 c3         1 QTY       0.089700
     29 C12         63.4370    28.1990     3.2900 cd         1 QTY       0.223600
     30 C13         63.0950    26.9620     3.7820 cc         1 QTY      -0.197600
     31 C14         62.8190    24.7480     2.6290 c5         1 QTY       0.002000
     32 C15         61.4360    24.5130     2.0390 c5         1 QTY       0.118900
     33 O15         61.6200    24.5180     0.6360 os         1 QTY      -0.389100
     34 C16         62.9230    24.0950     0.3060 c5         1 QTY       0.116100
     35 C17         62.9180    22.6450    -0.1960 c5         1 QTY       0.002000
     36 C18         63.0500    21.8560     1.1000 c5         1 QTY       0.118900
     37 C19         63.7200    24.0220     1.6220 c5         1 QTY       0.116100
     38 O19         63.8370    22.6570     1.9590 os         1 QTY      -0.389100
     39 C20         63.9770    21.8080    -2.3110 cc         1 QTY      -0.197600
     40 C21         65.2870    21.7950    -2.7220 cd         1 QTY       0.223600
     41 C22         65.8890    21.2460    -3.9740 c3         1 QTY       0.089700
     42 O22         63.8290    19.4720    -4.5820 o          1 QTY      -0.614100
     43 C23         64.9210    19.0180    -4.2730 c          1 QTY       0.668600
     44 C24         65.2000    17.5290    -4.2260 c3         1 QTY      -0.151900
     45 C25         63.9280    16.7090    -4.0240 c3         1 QTY      -0.145400
     46 O25         64.6360    14.7210    -2.8890 o          1 QTY      -0.596100
     47 C26         64.2690    15.2370    -3.9310 c          1 QTY       0.682600
     48 C27         64.5150    13.1820    -5.2300 c6         1 QTY       0.316000
     49 O27         62.3780    12.5880    -6.0540 oh         1 QTY      -0.589800
     50 C28         63.7430    12.5360    -6.3800 c6         1 QTY       0.112600
     51 O28         63.5260    10.5510    -7.6410 oh         1 QTY      -0.584800
     52 C29         64.2270    11.0990    -6.5540 c6         1 QTY       0.114600
     53 O29         66.0850    11.6400    -7.9520 oh         1 QTY      -0.569300
     54 C30         66.3740    11.7680    -5.5290 c6         1 QTY       0.125100
     55 O30         65.9010    13.0980    -5.4600 os         1 QTY      -0.402600
     56 C31         65.7450    11.0460    -6.7230 c6         1 QTY       0.088600
     57 C32         67.8850    11.8010    -5.5980 c3         1 QTY       0.147900
     58 HN10        63.9010    15.0630    -5.9270 hn         1 QTY       0.322000
     59 H13         62.8300    26.6080     4.7630 h4         1 QTY       0.209500
     60 H14         62.9200    24.3420     3.6320 h1         1 QTY       0.106200
     61 H16         63.3500    24.7830    -0.4260 h1         1 QTY       0.123200
     62 H17         62.0020    22.4100    -0.7350 h1         1 QTY       0.106200
     63 H19         64.7160    24.4610     1.5570 h1         1 QTY       0.123200
     64 H11         63.9030    30.2590     3.2730 h1         1 QTY       0.069950
     65 H11A        62.6260    29.8390     4.3940 h1         1 QTY       0.069950
     66 H20         63.0660    21.4590    -2.7640 h4         1 QTY       0.209500
     67 H27         64.2590    12.6600    -4.2970 h2         1 QTY       0.076200
     68 HO27        61.8930    12.1120    -6.7360 ho         1 QTY       0.423000
     69 H28         63.9540    13.0990    -7.3020 h1         1 QTY       0.071700
     70 HO28        63.5800     9.5910    -7.5940 ho         1 QTY       0.409000
     71 H29         63.9910    10.5600    -5.6240 h1         1 QTY       0.044200
     72 HO29        66.9360    11.2990    -8.2410 ho         1 QTY       0.403000
     73 H22         65.3230    21.5760    -4.8440 h1         1 QTY       0.069950
     74 H32         68.2350    10.7760    -5.7800 h1         1 QTY       0.026700
     75 H22A        66.9000    21.6370    -4.0820 h1         1 QTY       0.069950
     76 H32A        68.2020    12.4080    -6.4550 h1         1 QTY       0.026700
     77 H30         66.0840    11.2160    -4.6200 h1         1 QTY       0.053200
     78 H31         66.0590     9.9920    -6.6890 h1         1 QTY       0.034700
     79 HO31        69.3410    12.3850    -4.4650 ho         1 QTY       0.408000
     80 H24         65.9230    17.3090    -3.4380 hc         1 QTY       0.068450
     81 H24A        65.6800    17.2480    -5.1690 hc         1 QTY       0.068450
     82 H15         60.7180    25.2910     2.3030 h1         1 QTY       0.062450
     83 H25         63.4400    17.0000    -3.0940 hc         1 QTY       0.071700
     84 H15A        61.0410    23.5550     2.3950 h1         1 QTY       0.062450
     85 H25A        63.2290    16.8980    -4.8390 hc         1 QTY       0.071700
     86 H6          59.9380    23.1160     6.0900 h1         1 QTY       0.026700
     87 H6A         59.7120    24.6180     6.9920 h1         1 QTY       0.026700
     88 H18         63.5380    20.8900     0.9650 h1         1 QTY       0.062450
     89 H8          64.2850    28.5010     9.0900 hc         1 QTY       0.071700
     90 H18A        62.0540    21.6730     1.5180 h1         1 QTY       0.062450
     91 H8A         65.9630    28.0130     9.0950 hc         1 QTY       0.071700
     92 H9          66.3020    28.7510     6.8010 hc         1 QTY       0.068450
     93 H9A         65.5350    30.0470     7.6870 hc         1 QTY       0.068450
     94 H1          64.1370    24.2110     7.8050 h2         1 QTY       0.076200
     95 H2          62.4110    24.3950    10.3160 h1         1 QTY       0.071700
     96 H3          63.2760    22.0550     8.5670 h1         1 QTY       0.044200
     97 H4          60.9690    21.8010     7.9650 h1         1 QTY       0.034700
     98 H5          62.3660    23.1740     6.5930 h1         1 QTY       0.053200
     99 HN1         63.5250    26.4600     9.5950 hn         1 QTY       0.322000
    100 HN2         65.5180    29.6170     4.8370 hn         1 QTY       0.319500
    101 HN9         66.8260    19.3780    -3.6500 hn         1 QTY       0.319500
    102 HO2         64.2220    23.0400    11.0330 ho         1 QTY       0.423000
    103 HO3         62.2550    20.8430    10.1250 ho         1 QTY       0.409000
    104 HO4         59.4140    23.0510     8.8750 ho         1 QTY       0.403000
    105 HO6         60.0670    25.1710     4.8430 ho         1 QTY       0.408000
    106 O31         68.3860    12.3140    -4.3870 oh         1 QTY      -0.587300
@<TRIPOS>BOND
     1     1     2 1   
     2     1     3 1   
     3     1    14 1   
     4     1    94 1   
     5     2    18 1   
     6     2    99 1   
     7     3     5 1   
     8     3     6 1   
     9     3    95 1   
    10     4    25 1   
    11     4    28 1   
    12     4   100 1   
    13     5   102 1   
    14     6     8 1   
    15     6     9 1   
    16     6    96 1   
    17     7    10 1   
    18     7    30 1   
    19     7    31 1   
    20     8   103 1   
    21     9    11 1   
    22     9    12 1   
    23     9    97 1   
    24    10    13 2   
    25    11   104 1   
    26    12    14 1   
    27    12    15 1   
    28    12    98 1   
    29    13    29 1   
    30    15    17 1   
    31    15    86 1   
    32    15    87 1   
    33    16    19 1   
    34    16    35 1   
    35    16    39 1   
    36    17   105 1   
    37    18    20 2   
    38    18    21 1   
    39    19    22 2   
    40    21    23 1   
    41    21    89 1   
    42    21    91 1   
    43    22    40 1   
    44    23    25 1   
    45    23    92 1   
    46    23    93 1   
    47    24    41 1   
    48    24    43 1   
    49    24   101 1   
    50    25    27 2   
    51    26    47 1   
    52    26    48 1   
    53    26    58 1   
    54    28    29 1   
    55    28    64 1   
    56    28    65 1   
    57    29    30 2   
    58    30    59 1   
    59    31    32 1   
    60    31    37 1   
    61    31    60 1   
    62    32    33 1   
    63    32    82 1   
    64    32    84 1   
    65    33    34 1   
    66    34    35 1   
    67    34    37 1   
    68    34    61 1   
    69    35    36 1   
    70    35    62 1   
    71    36    38 1   
    72    36    88 1   
    73    36    90 1   
    74    37    38 1   
    75    37    63 1   
    76    39    40 2   
    77    39    66 1   
    78    40    41 1   
    79    41    73 1   
    80    41    75 1   
    81    42    43 2   
    82    43    44 1   
    83    44    45 1   
    84    44    80 1   
    85    44    81 1   
    86    45    47 1   
    87    45    83 1   
    88    45    85 1   
    89    46    47 2   
    90    48    50 1   
    91    48    55 1   
    92    48    67 1   
    93    49    50 1   
    94    49    68 1   
    95    50    52 1   
    96    50    69 1   
    97    51    52 1   
    98    51    70 1   
    99    52    56 1   
   100    52    71 1   
   101    53    56 1   
   102    53    72 1   
   103    54    55 1   
   104    54    56 1   
   105    54    57 1   
   106    54    77 1   
   107    56    78 1   
   108    57    74 1   
   109    57    76 1   
   110    57   106 1   
   111    79   106 1   
@<TRIPOS>SUBSTRUCTURE
     1 QTY         1 TEMP              0 ****  ****    0 ROOT
