@<TRIPOS>MOLECULE
QTZ
  112   115     1     0     0
SMALL
abcg2


@<TRIPOS>ATOM
      1 C1          44.6750   128.3050   124.7770 c          1 QTZ       0.596300
      2 C10         40.8880   127.6660   122.4470 ce         1 QTZ      -0.288200
      3 C11         41.0790   128.7530   123.1950 c2         1 QTZ      -0.151200
      4 C12         40.8730   128.8130   124.6550 cx         1 QTZ       0.101500
      5 C13         41.3990   127.7480   125.5180 cx         1 QTZ       0.099300
      6 C14         41.9440   127.9810   126.9220 c3         1 QTZ       0.201000
      7 C15         43.3360   128.6300   126.7340 c3         1 QTZ       0.159300
      8 C16         44.2080   128.9000   127.9540 c3         1 QTZ      -0.081400
      9 C17         44.6520   127.7080   128.7920 c3         1 QTZ      -0.080100
     10 C2          45.0560   127.3140   123.7570 ce         1 QTZ      -0.283200
     11 C20         40.0890   125.4650   120.4760 c3         1 QTZ      -0.084100
     12 C21         41.0190   128.8910   127.7410 c3         1 QTZ       0.142600
     13 C22         46.4840   124.0590   119.9130 c6         1 QTZ       0.366300
     14 C23         46.4850   122.5750   119.5120 c6         1 QTZ       0.142300
     15 C24         47.8070   122.2230   118.8320 c6         1 QTZ       0.208500
     16 C25         48.0930   123.2660   117.7440 c6         1 QTZ      -0.116400
     17 C26         47.9840   124.6960   118.2430 c6         1 QTZ       0.180300
     18 C27         48.1610   125.7110   117.1330 c3         1 QTZ      -0.087100
     19 C3          44.6120   126.0560   123.7420 c2         1 QTZ      -0.128200
     20 C30         41.0940   129.7750   129.9680 c6         1 QTZ       0.392300
     21 C31         39.6760   129.7470   130.5560 c6         1 QTZ       0.119300
     22 C32         39.5450   130.8160   131.6420 c6         1 QTZ       0.104300
     23 C33         40.6310   130.5580   132.6980 c6         1 QTZ       0.119300
     24 C34         42.0080   130.5470   132.0310 c6         1 QTZ       0.192300
     25 C35         43.1240   130.1890   132.9890 c3         1 QTZ      -0.084100
     26 C4          44.9560   124.9960   122.7370 c3         1 QTZ      -0.064500
     27 C5          45.0960   125.4810   121.2820 c3         1 QTZ       0.193300
     28 C6          43.9090   126.3150   120.7660 c3         1 QTZ      -0.061700
     29 C7          42.5730   125.5730   120.8940 c3         1 QTZ      -0.061400
     30 C8          41.3510   126.3170   120.3310 c3         1 QTZ      -0.159700
     31 C9          41.1880   127.6670   120.9960 c          1 QTZ       0.573300
     32 N1          47.8580   120.8980   118.2090 n3         1 QTZ      -0.744600
     33 O1          44.9070   129.4860   124.6590 o          1 QTZ      -0.490000
     34 O10         46.3300   121.7880   120.6680 oh         1 QTZ      -0.723000
     35 O11         41.3230   128.7040   120.3780 o          1 QTZ      -0.523100
     36 O12         40.0200   127.8480   125.2540 op         1 QTZ      -0.418000
     37 O13         42.0030   126.6940   127.4880 oh         1 QTZ      -0.700000
     38 O2          44.0390   127.7740   125.8190 os         1 QTZ      -0.445100
     39 O3          41.3120   128.7000   129.1080 os         1 QTZ      -0.469000
     40 O4          42.0150   129.5720   130.9980 os         1 QTZ      -0.464000
     41 O5          38.6630   129.7290   129.5860 os         1 QTZ      -0.448000
     42 O6          39.7110   132.0990   131.0820 os         1 QTZ      -0.458000
     43 O7          40.6450   131.5440   133.6980 oh         1 QTZ      -0.705000
     44 O8          45.2390   124.3340   120.4470 os         1 QTZ      -0.466000
     45 O9          46.7010   124.8930   118.8150 os         1 QTZ      -0.480000
     46 H1          40.5480   126.7400   122.8970 ha         1 QTZ       0.196000
     47 H2          41.4460   129.6660   122.7390 ha         1 QTZ       0.203000
     48 H3          40.7810   129.8170   125.0640 h1         1 QTZ       0.093700
     49 H4          41.8690   126.9080   125.0090 h1         1 QTZ       0.108700
     50 H5          43.1620   129.5960   126.2510 h1         1 QTZ       0.058700
     51 H6          45.0960   129.4170   127.5780 hc         1 QTZ       0.052700
     52 H7          43.7030   129.6310   128.5870 hc         1 QTZ       0.052700
     53 H8          45.4640   128.0110   129.4540 hc         1 QTZ       0.038033
     54 H9          43.8580   127.3260   129.4300 hc         1 QTZ       0.038033
     55 H10         45.0260   126.8870   128.1810 hc         1 QTZ       0.038033
     56 H17         45.6850   127.7040   122.9650 ha         1 QTZ       0.203000
     57 H18         39.2050   125.9900   120.1110 hc         1 QTZ       0.040033
     58 H19         40.1960   124.5520   119.8900 hc         1 QTZ       0.040033
     59 H20         39.9030   125.1680   121.5080 hc         1 QTZ       0.040033
     60 H21         41.1630   129.9380   127.4460 h1         1 QTZ       0.055700
     61 H22         39.9770   128.6330   127.5420 h1         1 QTZ       0.055700
     62 H23         47.2850   124.2240   120.6590 h2         1 QTZ       0.026700
     63 H24         45.6620   122.4180   118.7980 h1         1 QTZ       0.064700
     64 H25         48.5830   122.3100   119.6140 h1         1 QTZ       0.035700
     65 H26         47.3790   123.1190   116.9280 hc         1 QTZ       0.062700
     66 H27         49.0900   123.1080   117.3280 hc         1 QTZ       0.062700
     67 H28         48.7540   124.8700   119.0130 h1         1 QTZ       0.029700
     68 H29         48.0590   126.7300   117.5080 hc         1 QTZ       0.046367
     69 H30         49.1530   125.6150   116.6930 hc         1 QTZ       0.046367
     70 H31         47.4250   125.5580   116.3420 hc         1 QTZ       0.046367
     71 H32         49.8610   121.1700   117.6280 h1         1 QTZ       0.029367
     72 H33         49.6690   120.1780   119.0790 h1         1 QTZ       0.029367
     73 H34         49.2580   119.5280   117.4860 h1         1 QTZ       0.029367
     74 H35         45.9520   120.1450   118.7000 h1         1 QTZ       0.029367
     75 H36         47.0770   118.9990   118.0060 h1         1 QTZ       0.029367
     76 H37         47.2480   119.4680   119.6980 h1         1 QTZ       0.029367
     77 H38         43.9870   125.7120   124.5590 ha         1 QTZ       0.193000
     78 H39         41.3010   130.7250   129.4450 h2         1 QTZ       0.037700
     79 H40         39.5810   128.7770   131.0590 h1         1 QTZ       0.096700
     80 H41         38.5520   130.7210   132.1060 h1         1 QTZ       0.053700
     81 H42         40.4570   129.5590   133.1260 h1         1 QTZ       0.047700
     82 H43         42.2040   131.5420   131.6050 h1         1 QTZ       0.062700
     83 H44         43.1970   130.9270   133.7850 hc         1 QTZ       0.050033
     84 H45         42.9540   129.2110   133.4440 hc         1 QTZ       0.050033
     85 H46         44.0830   130.1650   132.4700 hc         1 QTZ       0.050033
     86 H47         39.0410   134.0060   131.0300 h1         1 QTZ       0.033033
     87 H48         37.7780   132.8140   131.3680 h1         1 QTZ       0.033033
     88 H49         38.9360   133.2620   132.6320 h1         1 QTZ       0.033033
     89 H50         37.8470   130.5360   127.9320 h1         1 QTZ       0.032367
     90 H51         37.7910   131.6130   129.3280 h1         1 QTZ       0.032367
     91 H52         39.3080   131.3790   128.4460 h1         1 QTZ       0.032367
     92 H53         44.1510   124.2550   122.7650 hc         1 QTZ       0.067700
     93 H54         45.9950   126.1080   121.2040 h1         1 QTZ       0.050700
     94 H55         43.8680   127.2030   121.4040 hc         1 QTZ       0.051700
     95 H56         42.3770   125.3360   121.9450 hc         1 QTZ       0.047700
     96 H57         42.6350   124.6140   120.3720 hc         1 QTZ       0.047700
     97 H58         41.5050   126.5080   119.2660 hc         1 QTZ       0.077700
     98 H60         45.4470   121.9410   121.0180 ho         1 QTZ       0.518000
     99 H61         42.0580   126.7770   128.4460 ho         1 QTZ       0.533000
    100 H62         39.8680   131.4310   134.2540 ho         1 QTZ       0.504000
    101 C18         46.2270   124.3050   123.2550 c3         1 QTZ      -0.093100
    102 C19         44.1690   126.8010   119.3410 c3         1 QTZ      -0.089100
    103 C28         49.2210   120.4260   118.1040 c3         1 QTZ       0.169600
    104 C29         46.9970   119.8420   118.6960 c3         1 QTZ       0.169600
    105 C36         38.8230   133.0800   131.5610 c3         1 QTZ       0.149900
    106 C37         38.4060   130.8780   128.8040 c3         1 QTZ       0.148900
    107 H11         46.1070   124.0220   124.3020 hc         1 QTZ       0.044033
    108 H12         46.4530   123.3960   122.7020 hc         1 QTZ       0.044033
    109 H13         47.0850   124.9750   123.1900 hc         1 QTZ       0.044033
    110 H14         45.1710   127.2190   119.2470 hc         1 QTZ       0.044033
    111 H15         44.0720   125.9980   118.6110 hc         1 QTZ       0.044033
    112 H16         43.4660   127.5860   119.0660 hc         1 QTZ       0.044033
@<TRIPOS>BOND
     1     1    10 1   
     2     1    33 2   
     3     1    38 1   
     4     2     3 2   
     5     2    31 1   
     6     2    46 1   
     7     3     4 1   
     8     3    47 1   
     9     4     5 1   
    10     4    36 1   
    11     4    48 1   
    12     5     6 1   
    13     5    36 1   
    14     5    49 1   
    15     6     7 1   
    16     6    12 1   
    17     6    37 1   
    18     7     8 1   
    19     7    38 1   
    20     7    50 1   
    21     8     9 1   
    22     8    51 1   
    23     8    52 1   
    24     9    53 1   
    25     9    54 1   
    26     9    55 1   
    27    10    19 2   
    28    10    56 1   
    29    11    30 1   
    30    11    57 1   
    31    11    58 1   
    32    11    59 1   
    33    12    39 1   
    34    12    60 1   
    35    12    61 1   
    36    13    14 1   
    37    13    44 1   
    38    13    45 1   
    39    13    62 1   
    40    14    15 1   
    41    14    34 1   
    42    14    63 1   
    43    15    16 1   
    44    15    32 1   
    45    15    64 1   
    46    16    17 1   
    47    16    65 1   
    48    16    66 1   
    49    17    18 1   
    50    17    45 1   
    51    17    67 1   
    52    18    68 1   
    53    18    69 1   
    54    18    70 1   
    55    19    26 1   
    56    19    77 1   
    57    20    21 1   
    58    20    39 1   
    59    20    40 1   
    60    20    78 1   
    61    21    22 1   
    62    21    41 1   
    63    21    79 1   
    64    22    23 1   
    65    22    42 1   
    66    22    80 1   
    67    23    24 1   
    68    23    43 1   
    69    23    81 1   
    70    24    25 1   
    71    24    40 1   
    72    24    82 1   
    73    25    83 1   
    74    25    84 1   
    75    25    85 1   
    76    26    27 1   
    77    26    92 1   
    78    26   101 1   
    79    27    28 1   
    80    27    44 1   
    81    27    93 1   
    82    28    29 1   
    83    28    94 1   
    84    28   102 1   
    85    29    30 1   
    86    29    95 1   
    87    29    96 1   
    88    30    31 1   
    89    30    97 1   
    90    31    35 2   
    91    32   103 1   
    92    32   104 1   
    93    34    98 1   
    94    37    99 1   
    95    41   106 1   
    96    42   105 1   
    97    43   100 1   
    98    71   103 1   
    99    72   103 1   
   100    73   103 1   
   101    74   104 1   
   102    75   104 1   
   103    76   104 1   
   104    86   105 1   
   105    87   105 1   
   106    88   105 1   
   107    89   106 1   
   108    90   106 1   
   109    91   106 1   
   110   101   107 1   
   111   101   108 1   
   112   101   109 1   
   113   102   110 1   
   114   102   111 1   
   115   102   112 1   
@<TRIPOS>SUBSTRUCTURE
     1 QTZ         1 TEMP              0 ****  ****    0 ROOT
