@<TRIPOS>MOLECULE
QTZ
  112   115     1     0     0
SMALL
No Charge or Current Charge


@<TRIPOS>ATOM
      1 C1          45.0060   128.1030   124.8410 c          1 QTZ       0.596300
      2 C10         40.7690   127.4360   122.5570 ce         1 QTZ      -0.288200
      3 C11         40.8560   128.6390   123.1830 c2         1 QTZ      -0.151200
      4 C12         40.7630   128.8430   124.6600 cx         1 QTZ       0.101500
      5 C13         41.2610   127.7830   125.6030 cx         1 QTZ       0.099300
      6 C14         41.9490   128.1560   126.9330 c3         1 QTZ       0.201000
      7 C15         43.4010   128.6830   126.5910 c3         1 QTZ       0.159300
      8 C16         44.3780   128.9960   127.7750 c3         1 QTZ      -0.081400
      9 C17         44.9220   127.7890   128.5760 c3         1 QTZ      -0.080100
     10 C2          45.3360   127.0240   123.8690 ce         1 QTZ      -0.283200
     11 C20         39.8570   124.9430   120.7950 c3         1 QTZ      -0.084100
     12 C21         41.1490   129.2120   127.7650 c3         1 QTZ       0.142600
     13 C22         46.4600   123.7830   119.9120 c6         1 QTZ       0.366300
     14 C23         46.4620   122.4190   119.1490 c6         1 QTZ       0.142300
     15 C24         47.8860   122.1630   118.4930 c6         1 QTZ       0.208500
     16 C25         48.3310   123.4570   117.7270 c6         1 QTZ      -0.116400
     17 C26         48.1690   124.7450   118.5660 c6         1 QTZ       0.180300
     18 C27         48.4710   126.0260   117.7540 c3         1 QTZ      -0.087100
     19 C3          44.7130   125.8200   123.8000 c2         1 QTZ      -0.128200
     20 C30         41.1170   130.0600   130.1010 c6         1 QTZ       0.392300
     21 C31         39.5720   130.0880   130.4040 c6         1 QTZ       0.119300
     22 C32         39.2890   131.1010   131.5660 c6         1 QTZ       0.104300
     23 C33         40.1180   130.6500   132.8200 c6         1 QTZ       0.119300
     24 C34         41.6290   130.6320   132.4190 c6         1 QTZ       0.192300
     25 C35         42.5560   130.1330   133.5560 c3         1 QTZ      -0.084100
     26 C4          45.0220   124.7040   122.8170 c3         1 QTZ      -0.064500
     27 C5          45.0130   125.1890   121.3290 c3         1 QTZ       0.193300
     28 C6          43.7320   125.9660   120.8650 c3         1 QTZ      -0.061700
     29 C7          42.4090   125.1500   121.0440 c3         1 QTZ      -0.061400
     30 C8          41.1000   125.8300   120.5320 c3         1 QTZ      -0.159700
     31 C9          40.8990   127.2610   121.0790 c          1 QTZ       0.573300
     32 N1          47.9610   120.9700   117.5520 n3         1 QTZ      -0.744600
     33 O1          45.4970   129.2200   124.7920 o          1 QTZ      -0.490000
     34 O10         46.0370   121.3790   120.0700 oh         1 QTZ      -0.723000
     35 O11         40.8840   128.2260   120.3250 o          1 QTZ      -0.523100
     36 O12         39.8430   128.0120   125.4080 op         1 QTZ      -0.418000
     37 O13         42.0090   126.9750   127.7560 oh         1 QTZ      -0.700000
     38 O2          44.0160   127.7170   125.7050 os         1 QTZ      -0.445100
     39 O3          41.4950   129.0330   129.1590 os         1 QTZ      -0.469000
     40 O4          41.8300   129.7280   131.3110 os         1 QTZ      -0.464000
     41 O5          38.7080   130.2980   129.2410 os         1 QTZ      -0.448000
     42 O6          39.6110   132.4610   131.1460 os         1 QTZ      -0.458000
     43 O7          39.8810   131.4720   133.9840 oh         1 QTZ      -0.705000
     44 O8          45.1540   124.0380   120.4670 os         1 QTZ      -0.466000
     45 O9          46.8170   124.8490   119.0260 os         1 QTZ      -0.480000
     46 H1          40.6480   126.5180   123.1270 ha         1 QTZ       0.196000
     47 H2          41.0040   129.5560   122.6060 ha         1 QTZ       0.203000
     48 H3          40.7940   129.8850   124.9830 h1         1 QTZ       0.093700
     49 H4          41.6370   126.8560   125.1720 h1         1 QTZ       0.108700
     50 H5          43.2540   129.6260   126.0460 h1         1 QTZ       0.058700
     51 H6          45.2390   129.5430   127.3750 hc         1 QTZ       0.052700
     52 H7          43.9010   129.6970   128.4690 hc         1 QTZ       0.052700
     53 H8          45.7150   128.1210   129.2580 hc         1 QTZ       0.038033
     54 H9          44.1410   127.3250   129.1860 hc         1 QTZ       0.038033
     55 H10         45.3480   127.0300   127.9100 hc         1 QTZ       0.038033
     56 H17         46.1330   127.2790   123.1740 ha         1 QTZ       0.203000
     57 H18         38.9510   125.4250   120.4080 hc         1 QTZ       0.040033
     58 H19         39.9630   123.9730   120.2940 hc         1 QTZ       0.040033
     59 H20         39.7160   124.7570   121.8660 hc         1 QTZ       0.040033
     60 H21         41.3950   130.2240   127.4170 h1         1 QTZ       0.055700
     61 H22         40.0740   129.0520   127.6230 h1         1 QTZ       0.055700
     62 H23         47.1970   123.7350   120.7260 h2         1 QTZ       0.026700
     63 H24         45.7330   122.5070   118.3300 h1         1 QTZ       0.064700
     64 H25         48.5960   122.0110   119.3200 h1         1 QTZ       0.035700
     65 H26         47.7500   123.5500   116.8000 hc         1 QTZ       0.062700
     66 H27         49.3860   123.3890   117.4340 hc         1 QTZ       0.062700
     67 H28         48.8430   124.7130   119.4350 h1         1 QTZ       0.029700
     68 H29         48.3420   126.9220   118.3730 hc         1 QTZ       0.046367
     69 H30         49.5030   126.0230   117.3850 hc         1 QTZ       0.046367
     70 H31         47.8050   126.1160   116.8870 hc         1 QTZ       0.046367
     71 H32         49.6080   121.5720   116.3060 h1         1 QTZ       0.029367
     72 H33         50.0670   120.6350   117.7530 h1         1 QTZ       0.029367
     73 H34         49.3230   119.8370   116.3500 h1         1 QTZ       0.029367
     74 H35         46.3430   119.7450   118.2360 h1         1 QTZ       0.029367
     75 H36         47.6260   118.8610   117.4250 h1         1 QTZ       0.029367
     76 H37         47.8980   119.4650   119.0740 h1         1 QTZ       0.029367
     77 H38         43.9090   125.5690   124.4960 ha         1 QTZ       0.193000
     78 H39         41.4540   131.0420   129.7360 h2         1 QTZ       0.037700
     79 H40         39.3250   129.0870   130.7860 h1         1 QTZ       0.096700
     80 H41         38.2160   131.0520   131.8040 h1         1 QTZ       0.053700
     81 H42         39.8310   129.6140   133.0560 h1         1 QTZ       0.047700
     82 H43         41.9510   131.6410   132.1220 h1         1 QTZ       0.062700
     83 H44         42.5250   130.8090   134.4190 hc         1 QTZ       0.050033
     84 H45         42.2620   129.1340   133.9000 hc         1 QTZ       0.050033
     85 H46         43.5980   130.0810   133.2180 hc         1 QTZ       0.050033
     86 H47         39.2280   134.5010   131.3670 h1         1 QTZ       0.033033
     87 H48         38.0700   133.4370   132.1900 h1         1 QTZ       0.033033
     88 H49         39.7080   133.6850   132.8570 h1         1 QTZ       0.033033
     89 H50         38.2620   131.4390   127.5480 h1         1 QTZ       0.032367
     90 H51         38.2780   132.3490   129.0630 h1         1 QTZ       0.032367
     91 H52         39.8140   131.8350   128.3130 h1         1 QTZ       0.032367
     92 H53         44.2360   123.9450   122.9140 hc         1 QTZ       0.067700
     93 H54         45.8650   125.8700   121.1980 h1         1 QTZ       0.050700
     94 H55         43.6550   126.8570   121.4990 hc         1 QTZ       0.051700
     95 H56         42.2800   124.9170   122.1080 hc         1 QTZ       0.047700
     96 H57         42.5150   124.1860   120.5320 hc         1 QTZ       0.047700
     97 H58         41.1830   125.9240   119.4430 hc         1 QTZ       0.077700
     98 H60         45.2580   121.7570   120.5430 ho         1 QTZ       0.518000
     99 H61         41.9120   127.3470   128.6690 ho         1 QTZ       0.533000
    100 H62         38.9630   131.2880   134.2900 ho         1 QTZ       0.504000
    101 C18         46.3400   124.0110   123.2380 c3         1 QTZ      -0.093100
    102 C19         43.9220   126.4830   119.4130 c3         1 QTZ      -0.089100
    103 C28         49.3100   120.7470   116.9650 c3         1 QTZ       0.169600
    104 C29         47.4310   119.6990   118.1080 c3         1 QTZ       0.169600
    105 C36         39.1300   133.5670   131.9340 c3         1 QTZ       0.149900
    106 C37         38.7750   131.5410   128.5120 c3         1 QTZ       0.148900
    107 H11         46.3230   123.7730   124.3090 hc         1 QTZ       0.044033
    108 H12         46.4820   123.0680   122.6980 hc         1 QTZ       0.044033
    109 H13         47.2030   124.6600   123.0470 hc         1 QTZ       0.044033
    110 H14         44.8890   126.9910   119.3080 hc         1 QTZ       0.044033
    111 H15         43.8920   125.6570   118.6930 hc         1 QTZ       0.044033
    112 H16         43.1470   127.2060   119.1380 hc         1 QTZ       0.044033
@<TRIPOS>BOND
     1     1    10 1   
     2     1    33 2   
     3     1    38 1   
     4     2     3 2   
     5     2    31 1   
     6     2    46 1   
     7     3     4 1   
     8     3    47 1   
     9     4     5 1   
    10     4    36 1   
    11     4    48 1   
    12     5     6 1   
    13     5    36 1   
    14     5    49 1   
    15     6     7 1   
    16     6    12 1   
    17     6    37 1   
    18     7     8 1   
    19     7    38 1   
    20     7    50 1   
    21     8     9 1   
    22     8    51 1   
    23     8    52 1   
    24     9    53 1   
    25     9    54 1   
    26     9    55 1   
    27    10    19 2   
    28    10    56 1   
    29    11    30 1   
    30    11    57 1   
    31    11    58 1   
    32    11    59 1   
    33    12    39 1   
    34    12    60 1   
    35    12    61 1   
    36    13    14 1   
    37    13    44 1   
    38    13    45 1   
    39    13    62 1   
    40    14    15 1   
    41    14    34 1   
    42    14    63 1   
    43    15    16 1   
    44    15    32 1   
    45    15    64 1   
    46    16    17 1   
    47    16    65 1   
    48    16    66 1   
    49    17    18 1   
    50    17    45 1   
    51    17    67 1   
    52    18    68 1   
    53    18    69 1   
    54    18    70 1   
    55    19    26 1   
    56    19    77 1   
    57    20    21 1   
    58    20    39 1   
    59    20    40 1   
    60    20    78 1   
    61    21    22 1   
    62    21    41 1   
    63    21    79 1   
    64    22    23 1   
    65    22    42 1   
    66    22    80 1   
    67    23    24 1   
    68    23    43 1   
    69    23    81 1   
    70    24    25 1   
    71    24    40 1   
    72    24    82 1   
    73    25    83 1   
    74    25    84 1   
    75    25    85 1   
    76    26    27 1   
    77    26    92 1   
    78    26   101 1   
    79    27    28 1   
    80    27    44 1   
    81    27    93 1   
    82    28    29 1   
    83    28    94 1   
    84    28   102 1   
    85    29    30 1   
    86    29    95 1   
    87    29    96 1   
    88    30    31 1   
    89    30    97 1   
    90    31    35 2   
    91    32   103 1   
    92    32   104 1   
    93    34    98 1   
    94    37    99 1   
    95    41   106 1   
    96    42   105 1   
    97    43   100 1   
    98    71   103 1   
    99    72   103 1   
   100    73   103 1   
   101    74   104 1   
   102    75   104 1   
   103    76   104 1   
   104    86   105 1   
   105    87   105 1   
   106    88   105 1   
   107    89   106 1   
   108    90   106 1   
   109    91   106 1   
   110   101   107 1   
   111   101   108 1   
   112   101   109 1   
   113   102   110 1   
   114   102   111 1   
   115   102   112 1   
@<TRIPOS>SUBSTRUCTURE
     1 QTZ         1 TEMP              0 ****  ****    0 ROOT
