@<TRIPOS>MOLECULE
QU0
   68    70     1     0     0
SMALL
abcg2


@<TRIPOS>ATOM
      1 C10         16.3320   -11.2030     5.5000 ca         1 QU0      -0.008000
      2 C17         12.3100   -12.5700     6.8840 c3         1 QU0      -0.047100
      3 C20         14.1100   -13.4840     3.6670 ca         1 QU0      -0.106000
      4 C21         13.9160   -12.3430     2.9020 ca         1 QU0      -0.108000
      5 C22         13.2090   -11.2730     3.4340 ca         1 QU0      -0.106000
      6 C24         12.4350   -11.7660     9.2700 c3         1 QU0       0.179300
      7 C26         13.2530   -11.0090    10.3200 c3         1 QU0      -0.160700
      8 C01         20.3720   -11.4970     3.1650 c3         1 QU0      -0.090100
      9 C03         18.1470   -12.6000     2.4210 c3         1 QU0      -0.006700
     10 C04         17.7530   -11.4470     1.4970 c3         1 QU0      -0.084600
     11 C05         17.6230   -13.8990     1.7910 c3         1 QU0      -0.084600
     12 C06         17.5600   -12.4490     3.8190 ca         1 QU0      -0.006300
     13 C07         17.7530   -13.4600     4.7660 ca         1 QU0      -0.131500
     14 C08         17.2550   -13.3570     6.0510 ca         1 QU0      -0.008000
     15 C09         16.5450   -12.2190     6.4160 ca         1 QU0      -0.301500
     16 C11         16.8380   -11.3270     4.2150 ca         1 QU0      -0.131500
     17 S12         15.9380   -12.0520     8.0700 sy         1 QU0       1.189600
     18 O13         15.8290   -10.6270     8.3480 o          1 QU0      -0.547500
     19 O14         16.7690   -12.8970     8.9140 o          1 QU0      -0.547500
     20 N15         14.4280   -12.6650     8.1360 n7         1 QU0      -0.937300
     21 C16         13.1970   -11.9130     7.9490 c3         1 QU0       0.270500
     22 C18         12.8830   -12.4920     5.4980 ca         1 QU0      -0.089300
     23 C19         13.5970   -13.5560     4.9550 ca         1 QU0      -0.106000
     24 C23         12.6990   -11.3500     4.7230 ca         1 QU0      -0.106000
     25 O25         12.0750   -13.0490     9.7090 oh         1 QU0      -0.668000
     26 C27         12.4720   -10.7960    11.5630 cc         1 QU0       0.519300
     27 N28         11.5370   -11.5520    12.0380 nd         1 QU0      -0.798000
     28 C29         11.1770   -10.9060    13.1910 cd         1 QU0       0.804900
     29 N30         11.8750    -9.8200    13.4210 nc         1 QU0      -0.459300
     30 O31         12.7190    -9.7490    12.3210 os         1 QU0      -0.083700
     31 N32         10.1760   -11.3330    13.9850 nh         1 QU0      -0.755300
     32 C33          9.9520   -10.6270    15.2270 c3         1 QU0       0.206600
     33 C34          9.7570   -12.7180    13.9270 c3         1 QU0       0.206600
     34 H1          15.7820   -10.3130     5.7730 ha         1 QU0       0.132000
     35 H3          12.1280   -13.6130     7.1550 hc         1 QU0       0.065200
     36 H4          14.6620   -14.3220     3.2600 ha         1 QU0       0.113000
     37 H5          14.3160   -12.2870     1.8980 ha         1 QU0       0.112000
     38 H6          13.0490   -10.3800     2.8430 ha         1 QU0       0.113000
     39 H7          11.5450   -11.1590     9.0440 h1         1 QU0       0.036700
     40 H8          14.1560   -11.5720    10.5760 hc         1 QU0       0.098200
     41 H9          13.5760   -10.0430     9.9290 hc         1 QU0       0.098200
     42 H10         21.4510   -11.6470     3.1880 hc         1 QU0       0.036033
     43 H11         20.1860   -10.5690     2.6230 hc         1 QU0       0.036033
     44 H12         20.0410   -11.3500     4.1940 hc         1 QU0       0.036033
     45 H13         19.9570   -13.5990     3.0570 hc         1 QU0       0.040200
     46 H14         20.0700   -12.8220     1.4990 hc         1 QU0       0.040200
     47 H15         18.0900   -10.4740     1.8570 hc         1 QU0       0.036867
     48 H16         18.1980   -11.6000     0.5130 hc         1 QU0       0.036867
     49 H17         16.6710   -11.3940     1.3620 hc         1 QU0       0.036867
     50 H18         17.9040   -14.7810     2.3670 hc         1 QU0       0.036867
     51 H19         16.5350   -13.8840     1.7070 hc         1 QU0       0.036867
     52 H20         18.0320   -14.0210     0.7860 hc         1 QU0       0.036867
     53 H21         18.3140   -14.3480     4.5050 ha         1 QU0       0.116500
     54 H22         17.4320   -14.1540     6.7600 ha         1 QU0       0.132000
     55 H23         16.6600   -10.5180     3.5210 ha         1 QU0       0.116500
     56 H24         14.3710   -13.6750     8.1420 hn         1 QU0       0.508000
     57 H25         13.4550   -10.9070     7.6100 h1         1 QU0       0.073700
     58 H26         13.7460   -14.4550     5.5420 ha         1 QU0       0.110000
     59 H27         12.1370   -10.5150     5.1280 ha         1 QU0       0.110000
     60 H28         11.5700   -12.9480    10.5290 ho         1 QU0       0.479000
     61 H29          8.9790   -10.9110    15.6230 h1         1 QU0       0.046367
     62 H30         10.7100   -10.8550    15.9830 h1         1 QU0       0.046367
     63 H31          9.9480    -9.5520    15.0590 h1         1 QU0       0.046367
     64 H32          8.7330   -12.7930    14.2890 h1         1 QU0       0.046367
     65 H33          9.7790   -13.0800    12.9030 h1         1 QU0       0.046367
     66 H34         10.3860   -13.3700    14.5400 h1         1 QU0       0.046367
     67 H2          11.3390   -12.0690     6.9050 hc         1 QU0       0.065200
     68 C02         19.6850   -12.6890     2.5150 c3         1 QU0      -0.065400
@<TRIPOS>BOND
     1     1    15 ar  
     2     1    16 ar  
     3     1    34 1   
     4     2    21 1   
     5     2    22 1   
     6     2    35 1   
     7     2    67 1   
     8     3     4 ar  
     9     3    23 ar  
    10     3    36 1   
    11     4     5 ar  
    12     4    37 1   
    13     5    24 ar  
    14     5    38 1   
    15     6     7 1   
    16     6    21 1   
    17     6    25 1   
    18     6    39 1   
    19     7    26 1   
    20     7    40 1   
    21     7    41 1   
    22     8    42 1   
    23     8    43 1   
    24     8    44 1   
    25     8    68 1   
    26     9    10 1   
    27     9    11 1   
    28     9    12 1   
    29     9    68 1   
    30    10    47 1   
    31    10    48 1   
    32    10    49 1   
    33    11    50 1   
    34    11    51 1   
    35    11    52 1   
    36    12    13 ar  
    37    12    16 ar  
    38    13    14 ar  
    39    13    53 1   
    40    14    15 ar  
    41    14    54 1   
    42    15    17 1   
    43    16    55 1   
    44    17    18 2   
    45    17    19 2   
    46    17    20 1   
    47    20    21 1   
    48    20    56 1   
    49    21    57 1   
    50    22    23 ar  
    51    22    24 ar  
    52    23    58 1   
    53    24    59 1   
    54    25    60 1   
    55    26    27 2   
    56    26    30 1   
    57    27    28 1   
    58    28    29 2   
    59    28    31 1   
    60    29    30 1   
    61    31    32 1   
    62    31    33 1   
    63    32    61 1   
    64    32    62 1   
    65    32    63 1   
    66    33    64 1   
    67    33    65 1   
    68    33    66 1   
    69    45    68 1   
    70    46    68 1   
@<TRIPOS>SUBSTRUCTURE
     1 QU0         1 TEMP              0 ****  ****    0 ROOT
