@<TRIPOS>MOLECULE
QU0
   68    70     1     0     0
SMALL
No Charge or Current Charge


@<TRIPOS>ATOM
      1 C10         16.3680   -11.1940     5.5590 ca         1 QU0      -0.008000
      2 C17         12.2480   -12.4540     6.7640 c3         1 QU0      -0.047100
      3 C20         13.9960   -13.4460     3.4880 ca         1 QU0      -0.106000
      4 C21         13.9410   -12.2430     2.7640 ca         1 QU0      -0.108000
      5 C22         13.3410   -11.1080     3.3350 ca         1 QU0      -0.106000
      6 C24         12.4580   -11.7770     9.2470 c3         1 QU0       0.179300
      7 C26         13.0630   -10.7520    10.2320 c3         1 QU0      -0.160700
      8 C01         20.5130   -11.7810     3.2400 c3         1 QU0      -0.090100
      9 C03         18.1640   -12.6350     2.4120 c3         1 QU0      -0.006700
     10 C04         17.8930   -11.4040     1.4970 c3         1 QU0      -0.084600
     11 C05         17.5110   -13.8660     1.7230 c3         1 QU0      -0.084600
     12 C06         17.5640   -12.4770     3.8380 ca         1 QU0      -0.006300
     13 C07         17.7090   -13.5250     4.7780 ca         1 QU0      -0.131500
     14 C08         17.2000   -13.4140     6.0820 ca         1 QU0      -0.008000
     15 C09         16.5350   -12.2410     6.4820 ca         1 QU0      -0.301500
     16 C11         16.8780   -11.3090     4.2550 ca         1 QU0      -0.131500
     17 S12         15.8810   -12.0870     8.1470 sy         1 QU0       1.189600
     18 O13         15.6940   -10.6790     8.5030 o          1 QU0      -0.547500
     19 O14         16.5560   -13.0270     9.0440 o          1 QU0      -0.547500
     20 N15         14.3690   -12.7440     7.9440 n7         1 QU0      -0.937300
     21 C16         13.1830   -11.8670     7.8510 c3         1 QU0       0.270500
     22 C18         12.8420   -12.3810     5.3580 ca         1 QU0      -0.089300
     23 C19         13.4490   -13.5140     4.7810 ca         1 QU0      -0.106000
     24 C23         12.7930   -11.1770     4.6280 ca         1 QU0      -0.106000
     25 O25         12.4690   -13.0590     9.9020 oh         1 QU0      -0.668000
     26 C27         12.2440   -10.5840    11.4770 cc         1 QU0       0.519300
     27 N28         11.7150   -11.5570    12.1880 nd         1 QU0      -0.798000
     28 C29         11.1060   -10.8440    13.1770 cd         1 QU0       0.804900
     29 N30         11.2180    -9.5320    13.1260 nc         1 QU0      -0.459300
     30 O31         11.9980    -9.3340    11.9650 os         1 QU0      -0.083700
     31 N32         10.4050   -11.5090    14.1710 nh         1 QU0      -0.755300
     32 C33          9.7240   -10.7630    15.2540 c3         1 QU0       0.206600
     33 C34         10.3120   -12.9870    14.1940 c3         1 QU0       0.206600
     34 H1          15.8400   -10.2860     5.8460 ha         1 QU0       0.132000
     35 H3          11.9970   -13.4900     7.0230 hc         1 QU0       0.065200
     36 H4          14.4650   -14.3240     3.0520 ha         1 QU0       0.113000
     37 H5          14.3650   -12.1900     1.7640 ha         1 QU0       0.112000
     38 H6          13.3010   -10.1760     2.7760 ha         1 QU0       0.113000
     39 H7          11.4210   -11.4640     9.0630 h1         1 QU0       0.036700
     40 H8          14.0720   -11.0580    10.5250 hc         1 QU0       0.098200
     41 H9          13.1580    -9.7810     9.7310 hc         1 QU0       0.098200
     42 H10         21.5700   -12.0670     3.2970 hc         1 QU0       0.036033
     43 H11         20.4550   -10.8230     2.7130 hc         1 QU0       0.036033
     44 H12         20.1480   -11.6390     4.2640 hc         1 QU0       0.036033
     45 H13         19.8980   -13.8340     3.0090 hc         1 QU0       0.040200
     46 H14         20.1170   -12.9890     1.4950 hc         1 QU0       0.040200
     47 H15         18.3090   -10.4820     1.9190 hc         1 QU0       0.036867
     48 H16         18.3440   -11.5460     0.5070 hc         1 QU0       0.036867
     49 H17         16.8160   -11.2540     1.3480 hc         1 QU0       0.036867
     50 H18         17.7060   -14.7930     2.2740 hc         1 QU0       0.036867
     51 H19         16.4250   -13.7390     1.6500 hc         1 QU0       0.036867
     52 H20         17.9010   -13.9990     0.7060 hc         1 QU0       0.036867
     53 H21         18.2250   -14.4400     4.5040 ha         1 QU0       0.116500
     54 H22         17.3280   -14.2410     6.7780 ha         1 QU0       0.132000
     55 H23         16.7230   -10.4720     3.5830 ha         1 QU0       0.116500
     56 H24         14.2560   -13.2420     8.8270 hn         1 QU0       0.508000
     57 H25         13.4410   -10.8510     7.5160 h1         1 QU0       0.073700
     58 H26         13.5050   -14.4460     5.3390 ha         1 QU0       0.110000
     59 H27         12.3300   -10.2930     5.0610 ha         1 QU0       0.110000
     60 H28         12.1160   -12.8840    10.8140 ho         1 QU0       0.479000
     61 H29          9.1950   -11.4370    15.9400 h1         1 QU0       0.046367
     62 H30         10.4540   -10.1870    15.8390 h1         1 QU0       0.046367
     63 H31          8.9890   -10.0640    14.8330 h1         1 QU0       0.046367
     64 H32          9.7410   -13.3440    15.0610 h1         1 QU0       0.046367
     65 H33          9.8150   -13.3530    13.2860 h1         1 QU0       0.046367
     66 H34         11.3150   -13.4330    14.2430 h1         1 QU0       0.046367
     67 H2          11.2990   -11.9040     6.7780 hc         1 QU0       0.065200
     68 C02         19.7060   -12.8790     2.5060 c3         1 QU0      -0.065400
@<TRIPOS>BOND
     1     1    15 ar  
     2     1    16 ar  
     3     1    34 1   
     4     2    21 1   
     5     2    22 1   
     6     2    35 1   
     7     2    67 1   
     8     3     4 ar  
     9     3    23 ar  
    10     3    36 1   
    11     4     5 ar  
    12     4    37 1   
    13     5    24 ar  
    14     5    38 1   
    15     6     7 1   
    16     6    21 1   
    17     6    25 1   
    18     6    39 1   
    19     7    26 1   
    20     7    40 1   
    21     7    41 1   
    22     8    42 1   
    23     8    43 1   
    24     8    44 1   
    25     8    68 1   
    26     9    10 1   
    27     9    11 1   
    28     9    12 1   
    29     9    68 1   
    30    10    47 1   
    31    10    48 1   
    32    10    49 1   
    33    11    50 1   
    34    11    51 1   
    35    11    52 1   
    36    12    13 ar  
    37    12    16 ar  
    38    13    14 ar  
    39    13    53 1   
    40    14    15 ar  
    41    14    54 1   
    42    15    17 1   
    43    16    55 1   
    44    17    18 2   
    45    17    19 2   
    46    17    20 1   
    47    20    21 1   
    48    20    56 1   
    49    21    57 1   
    50    22    23 ar  
    51    22    24 ar  
    52    23    58 1   
    53    24    59 1   
    54    25    60 1   
    55    26    27 2   
    56    26    30 1   
    57    27    28 1   
    58    28    29 2   
    59    28    31 1   
    60    29    30 1   
    61    31    32 1   
    62    31    33 1   
    63    32    61 1   
    64    32    62 1   
    65    32    63 1   
    66    33    64 1   
    67    33    65 1   
    68    33    66 1   
    69    45    68 1   
    70    46    68 1   
@<TRIPOS>SUBSTRUCTURE
     1 QU0         1 TEMP              0 ****  ****    0 ROOT
