@<TRIPOS>MOLECULE
QU2
  111   114     1     0     0
SMALL
abcg2


@<TRIPOS>ATOM
      1 C1          44.0110   537.7880   125.9290 c          1 QU2       0.598300
      2 C10         41.6450   539.1450   123.1720 ce         1 QU2      -0.306200
      3 C11         41.4470   540.2050   123.9540 c2         1 QU2      -0.131200
      4 C12         41.2770   540.1020   125.4250 cx         1 QU2       0.122500
      5 C13         40.6470   538.9320   126.0310 cx         1 QU2       0.095300
      6 C14         40.9050   538.4220   127.4420 c3         1 QU2      -0.061700
      7 C15         42.3730   538.0250   127.6590 c3         1 QU2       0.180300
      8 C16         42.5380   537.0370   128.8050 c3         1 QU2      -0.088400
      9 C17         43.9800   536.6500   129.1030 c3         1 QU2      -0.089100
     10 C2          44.3770   537.0820   124.6900 ce         1 QU2      -0.280200
     11 C21         40.4130   539.3820   128.5170 c3         1 QU2       0.176600
     12 C22         46.4070   535.0000   120.5160 c6         1 QU2       0.360300
     13 C23         46.3290   533.9470   119.4070 c6         1 QU2       0.155300
     14 C24         47.7300   533.3920   119.1550 c6         1 QU2       0.195500
     15 C25         48.6840   534.5640   118.8800 c6         1 QU2      -0.149400
     16 C26         48.6150   535.5980   119.9940 c6         1 QU2       0.185300
     17 C27         49.4700   536.8180   119.7210 c3         1 QU2      -0.087100
     18 C3          43.6550   536.1300   124.0970 c2         1 QU2      -0.132200
     19 C30         40.5020   541.7390   128.7650 c6         1 QU2       0.384300
     20 C31         40.1350   541.9220   130.2610 c6         1 QU2       0.074300
     21 C32         41.3110   542.6040   130.9430 c6         1 QU2       0.153300
     22 C33         41.5830   544.0020   130.3470 c6         1 QU2       0.129300
     23 C34         41.1900   544.0150   128.8630 c6         1 QU2       0.182300
     24 C35         42.0140   544.9900   128.0530 c3         1 QU2      -0.086100
     25 C4          44.0040   535.4230   122.8180 c3         1 QU2      -0.065500
     26 C5          44.8580   536.2660   121.8570 c3         1 QU2       0.191300
     27 C6          44.1850   537.5850   121.4390 c3         1 QU2      -0.064700
     28 C7          42.9980   537.4070   120.4600 c3         1 QU2      -0.055400
     29 C8          41.6080   537.9050   120.9270 c3         1 QU2      -0.159700
     30 C9          41.7250   539.2130   121.6930 c          1 QU2       0.578300
     31 N1          47.7270   532.3360   118.1570 n3         1 QU2      -0.712600
     32 O1          44.7150   538.6500   126.4030 o          1 QU2      -0.481000
     33 O10         45.4720   532.8950   119.7650 oh         1 QU2      -0.697000
     34 O11         41.8730   540.2680   121.1100 o          1 QU2      -0.523100
     35 O12         39.9230   540.1410   125.8650 op         1 QU2      -0.439000
     36 O2          42.8450   537.4070   126.4470 os         1 QU2      -0.460100
     37 O3          41.1980   540.5550   128.5320 os         1 QU2      -0.459000
     38 O4          41.3770   542.7230   128.3060 os         1 QU2      -0.452000
     39 O5          38.9630   542.6930   130.3810 os         1 QU2      -0.436000
     40 O6          41.3210   542.6100   132.3500 os         1 QU2      -0.464000
     41 O7          40.8850   545.0500   130.9710 oh         1 QU2      -0.709000
     42 O8          45.1360   535.5190   120.6800 os         1 QU2      -0.463000
     43 O9          47.2740   536.0380   120.1560 os         1 QU2      -0.484000
     44 H1          41.7130   538.1650   123.6240 ha         1 QU2       0.184000
     45 H2          41.3720   541.2010   123.5250 ha         1 QU2       0.205000
     46 H3          41.9590   540.7080   126.0190 h1         1 QU2       0.127700
     47 H4          40.3250   538.1470   125.3480 h1         1 QU2       0.084700
     48 H5          40.2920   537.5200   127.5570 hc         1 QU2       0.064700
     49 H6          42.9660   538.9190   127.8550 h1         1 QU2       0.096700
     50 H7          42.1000   537.4830   129.7000 hc         1 QU2       0.045700
     51 H8          41.9470   536.1410   128.5900 hc         1 QU2       0.045700
     52 H9          44.0200   535.9990   129.9770 hc         1 QU2       0.039700
     53 H10         44.4400   536.1060   128.2780 hc         1 QU2       0.039700
     54 H11         44.5940   537.5250   129.3170 hc         1 QU2       0.039700
     55 H18         45.3030   537.4360   124.2540 ha         1 QU2       0.204000
     56 H22         39.3580   539.6100   128.3290 h1         1 QU2       0.039200
     57 H23         40.4510   538.8890   129.4940 h1         1 QU2       0.039200
     58 H24         46.7690   534.5250   121.4460 h2         1 QU2       0.027700
     59 H25         45.9720   534.4640   118.5030 h1         1 QU2       0.052700
     60 H26         48.0540   532.9190   120.0920 h1         1 QU2       0.062700
     61 H27         49.7100   534.1990   118.7920 hc         1 QU2       0.057700
     62 H28         48.4310   535.0480   117.9310 hc         1 QU2       0.057700
     63 H29         48.9520   535.1260   120.9310 h1         1 QU2       0.030700
     64 H30         49.3940   537.5430   120.5310 hc         1 QU2       0.046700
     65 H31         50.5160   536.5270   119.6270 hc         1 QU2       0.046700
     66 H32         49.1700   537.3040   118.7910 hc         1 QU2       0.046700
     67 H33         49.1240   531.1830   119.1980 h1         1 QU2       0.029533
     68 H34         48.8030   530.6590   117.5470 h1         1 QU2       0.029533
     69 H35         49.8310   532.0620   117.8340 h1         1 QU2       0.029533
     70 H36         46.4610   533.3100   116.7910 h1         1 QU2       0.029533
     71 H37         48.1650   533.3660   116.3250 h1         1 QU2       0.029533
     72 H38         47.2510   531.8640   116.1890 h1         1 QU2       0.029533
     73 H39         42.7410   535.7880   124.5730 ha         1 QU2       0.185000
     74 H40         39.5720   541.7500   128.1700 h2         1 QU2       0.046700
     75 H41         39.9800   540.9300   130.7130 h1         1 QU2       0.052700
     76 H42         42.1790   541.9910   130.6750 h1         1 QU2       0.089700
     77 H43         42.6660   544.1760   130.4250 h1         1 QU2       0.041700
     78 H44         40.1330   544.3050   128.7950 h1         1 QU2       0.068700
     79 H45         41.9330   545.9890   128.4820 hc         1 QU2       0.048033
     80 H46         43.0690   544.7080   128.0520 hc         1 QU2       0.048033
     81 H47         41.6670   545.0410   127.0210 hc         1 QU2       0.048033
     82 H48         40.3970   542.8240   134.1190 h1         1 QU2       0.032700
     83 H49         39.5940   543.7130   132.8190 h1         1 QU2       0.032700
     84 H50         39.4220   541.9530   132.9380 h1         1 QU2       0.032700
     85 H51         36.9390   542.6180   130.3920 h1         1 QU2       0.031367
     86 H52         37.6850   541.3570   129.4000 h1         1 QU2       0.031367
     87 H53         37.7180   541.2250   131.1670 h1         1 QU2       0.031367
     88 H54         43.0620   535.1800   122.3130 hc         1 QU2       0.068700
     89 H55         45.8000   536.5160   122.3620 h1         1 QU2       0.051700
     90 H56         43.8330   538.0400   122.3670 hc         1 QU2       0.054700
     91 H57         42.8780   536.3610   120.1680 hc         1 QU2       0.054200
     92 H58         43.2450   537.9330   119.5360 hc         1 QU2       0.054200
     93 H59         41.0520   538.1540   120.0180 hc         1 QU2       0.070700
     94 H61         44.5870   533.2580   119.8770 ho         1 QU2       0.510000
     95 H62         41.3080   545.2400   131.8130 ho         1 QU2       0.509000
     96 C18         44.6600   534.0890   123.2000 c3         1 QU2      -0.089100
     97 C19         45.2090   538.5570   120.8570 c3         1 QU2      -0.091100
     98 C20         40.8090   536.8310   121.6600 c3         1 QU2      -0.086100
     99 C28         48.9300   531.5360   118.1830 c3         1 QU2       0.160600
    100 C29         47.3950   532.7490   116.8110 c3         1 QU2       0.160600
    101 C36         40.1180   542.7890   133.0660 c3         1 QU2       0.153900
    102 H12         44.0410   533.5540   123.9210 hc         1 QU2       0.043033
    103 C37         37.7810   541.9300   130.3290 c3         1 QU2       0.138900
    104 H13         44.7840   533.4390   122.3360 hc         1 QU2       0.043033
    105 H14         45.6370   534.2510   123.6570 hc         1 QU2       0.043033
    106 H15         46.0350   538.7250   121.5510 hc         1 QU2       0.043033
    107 H16         45.6260   538.1900   119.9200 hc         1 QU2       0.043033
    108 H17         44.7420   539.5220   120.6550 hc         1 QU2       0.043033
    109 H19         39.8430   537.2060   122.0010 hc         1 QU2       0.036367
    110 H20         40.6190   535.9980   120.9830 hc         1 QU2       0.036367
    111 H21         41.3290   536.4260   122.5270 hc         1 QU2       0.036367
@<TRIPOS>BOND
     1     1    10 1   
     2     1    32 2   
     3     1    36 1   
     4     2     3 2   
     5     2    30 1   
     6     2    44 1   
     7     3     4 1   
     8     3    45 1   
     9     4     5 1   
    10     4    35 1   
    11     4    46 1   
    12     5     6 1   
    13     5    35 1   
    14     5    47 1   
    15     6     7 1   
    16     6    11 1   
    17     6    48 1   
    18     7     8 1   
    19     7    36 1   
    20     7    49 1   
    21     8     9 1   
    22     8    50 1   
    23     8    51 1   
    24     9    52 1   
    25     9    53 1   
    26     9    54 1   
    27    10    18 2   
    28    10    55 1   
    29    11    37 1   
    30    11    56 1   
    31    11    57 1   
    32    12    13 1   
    33    12    42 1   
    34    12    43 1   
    35    12    58 1   
    36    13    14 1   
    37    13    33 1   
    38    13    59 1   
    39    14    15 1   
    40    14    31 1   
    41    14    60 1   
    42    15    16 1   
    43    15    61 1   
    44    15    62 1   
    45    16    17 1   
    46    16    43 1   
    47    16    63 1   
    48    17    64 1   
    49    17    65 1   
    50    17    66 1   
    51    18    25 1   
    52    18    73 1   
    53    19    20 1   
    54    19    37 1   
    55    19    38 1   
    56    19    74 1   
    57    20    21 1   
    58    20    39 1   
    59    20    75 1   
    60    21    22 1   
    61    21    40 1   
    62    21    76 1   
    63    22    23 1   
    64    22    41 1   
    65    22    77 1   
    66    23    24 1   
    67    23    38 1   
    68    23    78 1   
    69    24    79 1   
    70    24    80 1   
    71    24    81 1   
    72    25    26 1   
    73    25    88 1   
    74    25    96 1   
    75    26    27 1   
    76    26    42 1   
    77    26    89 1   
    78    27    28 1   
    79    27    90 1   
    80    27    97 1   
    81    28    29 1   
    82    28    91 1   
    83    28    92 1   
    84    29    30 1   
    85    29    93 1   
    86    29    98 1   
    87    30    34 2   
    88    31    99 1   
    89    31   100 1   
    90    33    94 1   
    91    39   103 1   
    92    40   101 1   
    93    41    95 1   
    94    67    99 1   
    95    68    99 1   
    96    69    99 1   
    97    70   100 1   
    98    71   100 1   
    99    72   100 1   
   100    82   101 1   
   101    83   101 1   
   102    84   101 1   
   103    85   103 1   
   104    86   103 1   
   105    87   103 1   
   106    96   102 1   
   107    96   104 1   
   108    96   105 1   
   109    97   106 1   
   110    97   107 1   
   111    97   108 1   
   112    98   109 1   
   113    98   110 1   
   114    98   111 1   
@<TRIPOS>SUBSTRUCTURE
     1 QU2         1 TEMP              0 ****  ****    0 ROOT
