@<TRIPOS>MOLECULE
QU2
  111   114     1     0     0
SMALL
No Charge or Current Charge


@<TRIPOS>ATOM
      1 C1          43.9000   538.3020   125.7980 c          1 QU2       0.598300
      2 C10         41.5550   539.4150   122.6500 ce         1 QU2      -0.306200
      3 C11         41.1630   540.4850   123.3900 c2         1 QU2      -0.131200
      4 C12         40.7900   540.4180   124.8330 cx         1 QU2       0.122500
      5 C13         40.2370   539.1590   125.4460 cx         1 QU2       0.095300
      6 C14         40.4840   538.8250   126.9270 c3         1 QU2      -0.061700
      7 C15         42.0050   538.7180   127.2650 c3         1 QU2       0.180300
      8 C16         42.2830   538.0020   128.6200 c3         1 QU2      -0.088400
      9 C17         43.7660   537.9210   129.0410 c3         1 QU2      -0.089100
     10 C2          44.4230   537.3940   124.7410 ce         1 QU2      -0.280200
     11 C21         39.7230   539.7520   127.9140 c3         1 QU2       0.176600
     12 C22         46.4450   534.6690   120.6500 c6         1 QU2       0.360300
     13 C23         46.4270   533.5440   119.5680 c6         1 QU2       0.155300
     14 C24         47.8920   533.0020   119.3820 c6         1 QU2       0.195500
     15 C25         48.8550   534.1940   119.0870 c6         1 QU2      -0.149400
     16 C26         48.7110   535.2990   120.1620 c6         1 QU2       0.185300
     17 C27         49.5520   536.5550   119.8380 c3         1 QU2      -0.087100
     18 C3          43.7390   536.3700   124.1740 c2         1 QU2      -0.132200
     19 C30         39.9180   541.9830   128.9270 c6         1 QU2       0.384300
     20 C31         40.3220   541.5720   130.4000 c6         1 QU2       0.074300
     21 C32         41.7580   542.1220   130.6890 c6         1 QU2       0.153300
     22 C33         41.8430   543.6820   130.5410 c6         1 QU2       0.129300
     23 C34         40.7060   544.2020   129.6030 c6         1 QU2       0.182300
     24 C35         41.0430   545.5660   128.9510 c3         1 QU2      -0.086100
     25 C4          44.2620   535.4260   123.1020 c3         1 QU2      -0.065500
     26 C5          44.9340   536.1650   121.8930 c3         1 QU2       0.191300
     27 C6          44.1400   537.3790   121.3010 c3         1 QU2      -0.064700
     28 C7          42.6770   537.0230   120.8920 c3         1 QU2      -0.055400
     29 C8          41.8020   538.1990   120.3600 c3         1 QU2      -0.159700
     30 C9          41.9040   539.4920   121.2010 c          1 QU2       0.578300
     31 N1          48.0140   531.8960   118.3660 n3         1 QU2      -0.712600
     32 O1          44.5390   539.2500   126.2270 o          1 QU2      -0.481000
     33 O10         45.4800   532.5020   119.9180 oh         1 QU2      -0.697000
     34 O11         42.2040   540.5590   120.6800 o          1 QU2      -0.523100
     35 O12         39.3780   540.2750   125.1140 op         1 QU2      -0.439000
     36 O2          42.6330   537.9590   126.2060 os         1 QU2      -0.460100
     37 O3          40.4170   541.0120   127.9930 os         1 QU2      -0.459000
     38 O4          40.4930   543.2570   128.5310 os         1 QU2      -0.452000
     39 O5          39.3530   542.0570   131.3730 os         1 QU2      -0.436000
     40 O6          42.3880   541.6080   131.9060 os         1 QU2      -0.464000
     41 O7          41.8540   544.3780   131.8030 oh         1 QU2      -0.709000
     42 O8          45.1210   535.2110   120.8250 os         1 QU2      -0.463000
     43 O9          47.3390   535.7190   120.2430 os         1 QU2      -0.484000
     44 H1          41.5520   538.4160   123.0770 ha         1 QU2       0.184000
     45 H2          41.1210   541.4850   122.9530 ha         1 QU2       0.205000
     46 H3          41.3210   541.1150   125.4850 h1         1 QU2       0.127700
     47 H4          40.1190   538.2840   124.8080 h1         1 QU2       0.084700
     48 H5          40.0590   537.8250   127.0780 hc         1 QU2       0.064700
     49 H6          42.4120   539.7380   127.3090 h1         1 QU2       0.096700
     50 H7          41.7480   538.5290   129.4190 hc         1 QU2       0.045700
     51 H8          41.8680   536.9870   128.5850 hc         1 QU2       0.045700
     52 H9          43.8510   537.4890   130.0450 hc         1 QU2       0.039700
     53 H10         44.3380   537.2850   128.3540 hc         1 QU2       0.039700
     54 H11         44.2200   538.9190   129.0600 hc         1 QU2       0.039700
     55 H18         45.4410   537.6180   124.4320 ha         1 QU2       0.204000
     56 H22         38.6880   539.8950   127.5760 h1         1 QU2       0.039200
     57 H23         39.6760   539.2640   128.8950 h1         1 QU2       0.039200
     58 H24         46.7980   534.2470   121.6010 h2         1 QU2       0.027700
     59 H25         46.1140   534.0170   118.6260 h1         1 QU2       0.052700
     60 H26         48.1880   532.5930   120.3610 h1         1 QU2       0.062700
     61 H27         49.8970   533.8510   119.0650 hc         1 QU2       0.057700
     62 H28         48.6410   534.6230   118.1000 hc         1 QU2       0.057700
     63 H29         49.0240   534.9100   121.1420 h1         1 QU2       0.030700
     64 H30         49.4280   537.3200   120.6130 hc         1 QU2       0.046700
     65 H31         50.6190   536.3090   119.7810 hc         1 QU2       0.046700
     66 H32         49.2580   536.9960   118.8780 hc         1 QU2       0.046700
     67 H33         49.5620   530.8830   119.4300 h1         1 QU2       0.029533
     68 H34         49.2720   530.2760   117.7880 h1         1 QU2       0.029533
     69 H35         50.1250   531.8160   118.0210 h1         1 QU2       0.029533
     70 H36         46.5830   532.6550   116.9620 h1         1 QU2       0.029533
     71 H37         48.2820   532.9820   116.5390 h1         1 QU2       0.029533
     72 H38         47.6080   531.3530   116.3450 h1         1 QU2       0.029533
     73 H39         42.7160   536.1480   124.4880 ha         1 QU2       0.185000
     74 H40         38.8240   542.0420   128.8340 h2         1 QU2       0.046700
     75 H41         40.3610   540.4790   130.4860 h1         1 QU2       0.052700
     76 H42         42.3750   541.7320   129.8650 h1         1 QU2       0.089700
     77 H43         42.7980   543.8830   130.0320 h1         1 QU2       0.041700
     78 H44         39.7710   544.3160   130.1710 h1         1 QU2       0.068700
     79 H45         41.1930   546.3390   129.7140 hc         1 QU2       0.048033
     80 H46         41.9580   545.5050   128.3490 hc         1 QU2       0.048033
     81 H47         40.2290   545.8990   128.2970 hc         1 QU2       0.048033
     82 H48         42.2880   541.2500   133.9660 h1         1 QU2       0.032700
     83 H49         41.1350   542.4660   133.3800 h1         1 QU2       0.032700
     84 H50         40.8590   540.7380   133.0570 h1         1 QU2       0.032700
     85 H51         37.4420   541.8510   132.1900 h1         1 QU2       0.031367
     86 H52         37.5150   541.6600   130.4290 h1         1 QU2       0.031367
     87 H53         38.1210   540.3660   131.4920 h1         1 QU2       0.031367
     88 H54         43.4010   534.8750   122.7010 hc         1 QU2       0.068700
     89 H55         45.9030   536.5550   122.2350 h1         1 QU2       0.051700
     90 H56         44.0860   538.1290   122.0980 hc         1 QU2       0.054700
     91 H57         42.1630   536.5850   121.7540 hc         1 QU2       0.054200
     92 H58         42.7030   536.2360   120.1280 hc         1 QU2       0.054200
     93 H59         42.1600   538.4530   119.3550 hc         1 QU2       0.070700
     94 H61         44.6590   532.9760   120.1870 ho         1 QU2       0.510000
     95 H62         42.3700   543.7990   132.4110 ho         1 QU2       0.509000
     96 C18         45.1760   534.3650   123.7580 c3         1 QU2      -0.089100
     97 C19         44.9290   538.0470   120.1440 c3         1 QU2      -0.091100
     98 C20         40.3250   537.7660   120.2020 c3         1 QU2      -0.086100
     99 C28         49.3130   531.1840   118.4040 c3         1 QU2       0.160600
    100 C29         47.6000   532.2460   116.9840 c3         1 QU2       0.160600
    101 C36         41.6280   541.5180   133.1320 c3         1 QU2       0.153900
    102 H12         44.6940   533.9430   124.6490 hc         1 QU2       0.043033
    103 C37         38.0470   541.4530   131.3660 c3         1 QU2       0.138900
    104 H13         45.3750   533.5340   123.0730 hc         1 QU2       0.043033
    105 H14         46.1310   534.8070   124.0650 hc         1 QU2       0.043033
    106 H15         45.9620   538.2510   120.4490 hc         1 QU2       0.043033
    107 H16         44.9560   537.3990   119.2600 hc         1 QU2       0.043033
    108 H17         44.4790   539.0030   119.8520 hc         1 QU2       0.043033
    109 H19         39.7290   538.5790   119.7690 hc         1 QU2       0.036367
    110 H20         40.2440   536.8960   119.5380 hc         1 QU2       0.036367
    111 H21         39.8850   537.4990   121.1710 hc         1 QU2       0.036367
@<TRIPOS>BOND
     1     1    10 1   
     2     1    32 2   
     3     1    36 1   
     4     2     3 2   
     5     2    30 1   
     6     2    44 1   
     7     3     4 1   
     8     3    45 1   
     9     4     5 1   
    10     4    35 1   
    11     4    46 1   
    12     5     6 1   
    13     5    35 1   
    14     5    47 1   
    15     6     7 1   
    16     6    11 1   
    17     6    48 1   
    18     7     8 1   
    19     7    36 1   
    20     7    49 1   
    21     8     9 1   
    22     8    50 1   
    23     8    51 1   
    24     9    52 1   
    25     9    53 1   
    26     9    54 1   
    27    10    18 2   
    28    10    55 1   
    29    11    37 1   
    30    11    56 1   
    31    11    57 1   
    32    12    13 1   
    33    12    42 1   
    34    12    43 1   
    35    12    58 1   
    36    13    14 1   
    37    13    33 1   
    38    13    59 1   
    39    14    15 1   
    40    14    31 1   
    41    14    60 1   
    42    15    16 1   
    43    15    61 1   
    44    15    62 1   
    45    16    17 1   
    46    16    43 1   
    47    16    63 1   
    48    17    64 1   
    49    17    65 1   
    50    17    66 1   
    51    18    25 1   
    52    18    73 1   
    53    19    20 1   
    54    19    37 1   
    55    19    38 1   
    56    19    74 1   
    57    20    21 1   
    58    20    39 1   
    59    20    75 1   
    60    21    22 1   
    61    21    40 1   
    62    21    76 1   
    63    22    23 1   
    64    22    41 1   
    65    22    77 1   
    66    23    24 1   
    67    23    38 1   
    68    23    78 1   
    69    24    79 1   
    70    24    80 1   
    71    24    81 1   
    72    25    26 1   
    73    25    88 1   
    74    25    96 1   
    75    26    27 1   
    76    26    42 1   
    77    26    89 1   
    78    27    28 1   
    79    27    90 1   
    80    27    97 1   
    81    28    29 1   
    82    28    91 1   
    83    28    92 1   
    84    29    30 1   
    85    29    93 1   
    86    29    98 1   
    87    30    34 2   
    88    31    99 1   
    89    31   100 1   
    90    33    94 1   
    91    39   103 1   
    92    40   101 1   
    93    41    95 1   
    94    67    99 1   
    95    68    99 1   
    96    69    99 1   
    97    70   100 1   
    98    71   100 1   
    99    72   100 1   
   100    82   101 1   
   101    83   101 1   
   102    84   101 1   
   103    85   103 1   
   104    86   103 1   
   105    87   103 1   
   106    96   102 1   
   107    96   104 1   
   108    96   105 1   
   109    97   106 1   
   110    97   107 1   
   111    97   108 1   
   112    98   109 1   
   113    98   110 1   
   114    98   111 1   
@<TRIPOS>SUBSTRUCTURE
     1 QU2         1 TEMP              0 ****  ****    0 ROOT
