@<TRIPOS>MOLECULE
QU3
   38    40     1     0     0
SMALL
abcg2


@<TRIPOS>ATOM
      1 C18        -45.7510   -30.2940     5.7230 ca         1 QU3       0.373900
      2 C16        -47.6670   -29.0920     5.3850 ca         1 QU3       0.183300
      3 C15        -48.5590   -28.3260     4.4490 c6         1 QU3      -0.162700
      4 C14        -49.5900   -27.4990     5.2130 c6         1 QU3       0.094000
      5 C01        -55.8260   -31.9540     9.8180 c3         1 QU3       0.193100
      6 C06        -53.1460   -31.5410     7.8110 cc         1 QU3      -0.135100
      7 C07        -52.6660   -31.0430     6.6460 cd         1 QU3       0.006000
      8 C08        -52.0340   -29.8020     6.9820 cd         1 QU3      -0.238600
      9 C09        -52.2050   -29.6370     8.3240 cc         1 QU3       0.204900
     10 C21        -47.1340   -30.0000     7.4980 ca         1 QU3       0.160900
     11 C22        -48.0270   -29.2740     6.7210 ca         1 QU3      -0.288300
     12 C23        -49.3120   -28.7280     7.2970 c6         1 QU3       0.175300
     13 N02        -55.5250   -32.6760     8.5730 n7         1 QU3      -0.884300
     14 N13        -50.2270   -28.3310     6.2340 n          1 QU3      -0.403800
     15 N17        -46.5370   -29.5980     4.8880 nb         1 QU3      -0.248000
     16 N19        -44.6270   -30.8550     5.2050 nv         1 QU3      -1.050900
     17 N20        -46.0020   -30.5130     7.0280 nb         1 QU3      -0.236000
     18 O04        -54.0350   -33.7520     6.9250 o          1 QU3      -0.529500
     19 O05        -53.3640   -33.6080     9.3330 o          1 QU3      -0.529500
     20 O10        -52.8840   -30.6890     8.8470 os         1 QU3      -0.201000
     21 O12        -52.0440   -28.6900     4.9210 o          1 QU3      -0.593100
     22 H152       -49.0710   -29.0400     3.7960 hc         1 QU3       0.080700
     23 H151       -47.9490   -27.6870     3.8080 hc         1 QU3       0.080700
     24 H142       -50.3520   -27.1080     4.5480 h1         1 QU3       0.069700
     25 H141       -49.1060   -26.6630     5.7230 h1         1 QU3       0.069700
     26 H012       -56.8940   -32.0500    10.0010 h1         1 QU3       0.055367
     27 H013       -55.2860   -32.4170    10.6390 h1         1 QU3       0.055367
     28 H011       -55.5640   -30.8960     9.7580 h1         1 QU3       0.055367
     29 H071       -52.7300   -31.4970     5.6730 ha         1 QU3       0.176000
     30 H091       -51.9310   -28.8580     9.0150 h4         1 QU3       0.062100
     31 H211       -47.3450   -30.1780     8.5490 h4         1 QU3       0.021100
     32 H232       -49.7770   -29.4810     7.9230 h1         1 QU3       0.057200
     33 H231       -49.1080   -27.8570     7.9280 h1         1 QU3       0.057200
     34 H021       -56.0570   -32.3710     7.7650 hn         1 QU3       0.486000
     35 H191       -44.3110   -30.5270     4.3070 hn         1 QU3       0.493500
     36 H192       -43.9250   -31.1770     5.8510 hn         1 QU3       0.493500
     37 C11        -51.4280   -28.8950     5.9710 c          1 QU3       0.641700
     38 S03        -53.9900   -33.0320     8.1710 sy         1 QU3       1.153200
@<TRIPOS>BOND
     1     1    15 ar  
     2     1    16 1   
     3     1    17 ar  
     4     2     3 1   
     5     2    11 ar  
     6     2    15 ar  
     7     3     4 1   
     8     3    22 1   
     9     3    23 1   
    10     4    14 1   
    11     4    24 1   
    12     4    25 1   
    13     5    13 1   
    14     5    26 1   
    15     5    27 1   
    16     5    28 1   
    17     6     7 2   
    18     6    20 1   
    19     6    38 1   
    20     7     8 1   
    21     7    29 1   
    22     8     9 2   
    23     8    37 1   
    24     9    20 1   
    25     9    30 1   
    26    10    11 ar  
    27    10    17 ar  
    28    10    31 1   
    29    11    12 1   
    30    12    14 1   
    31    12    32 1   
    32    12    33 1   
    33    13    34 1   
    34    13    38 1   
    35    14    37 1   
    36    16    35 1   
    37    16    36 1   
    38    18    38 2   
    39    19    38 2   
    40    21    37 2   
@<TRIPOS>SUBSTRUCTURE
     1 QU3         1 TEMP              0 ****  ****    0 ROOT
