@<TRIPOS>MOLECULE
QU3
   38    40     1     0     0
SMALL
No Charge or Current Charge


@<TRIPOS>ATOM
      1 C18        -45.2610   -29.4440     5.5640 ca         1 QU3       0.373900
      2 C16        -47.4660   -28.8850     5.4110 ca         1 QU3       0.183300
      3 C15        -48.5890   -28.1980     4.6560 c6         1 QU3      -0.162700
      4 C14        -49.7280   -27.8210     5.6200 c6         1 QU3       0.094000
      5 C01        -56.0910   -30.8590     8.8430 c3         1 QU3       0.193100
      6 C06        -53.4100   -32.0160     8.1230 cc         1 QU3      -0.135100
      7 C07        -53.1710   -31.3460     6.9550 cd         1 QU3       0.006000
      8 C08        -52.0210   -30.5430     7.1480 cd         1 QU3      -0.238600
      9 C09        -51.6310   -30.7400     8.4520 cc         1 QU3       0.204900
     10 C21        -46.6110   -30.1400     7.2700 ca         1 QU3       0.160900
     11 C22        -47.7120   -29.5380     6.6330 ca         1 QU3      -0.288300
     12 C23        -49.1130   -29.6100     7.2460 c6         1 QU3       0.175300
     13 N02        -55.8880   -32.2540     9.2850 n7         1 QU3      -0.884300
     14 N13        -50.1790   -29.0030     6.4000 n          1 QU3      -0.403800
     15 N17        -46.2330   -28.8350     4.8690 nb         1 QU3      -0.248000
     16 N19        -44.0180   -29.3940     5.0230 nv         1 QU3      -1.050900
     17 N20        -45.3750   -30.0930     6.7340 nb         1 QU3      -0.236000
     18 O04        -55.3860   -33.5760     7.2280 o          1 QU3      -0.529500
     19 O05        -54.2720   -34.1480     9.4740 o          1 QU3      -0.529500
     20 O10        -52.4620   -31.6570     9.0580 os         1 QU3      -0.201000
     21 O12        -52.0520   -29.3500     5.1200 o          1 QU3      -0.593100
     22 H152       -48.9700   -28.8700     3.8760 hc         1 QU3       0.080700
     23 H151       -48.2200   -27.2960     4.1490 hc         1 QU3       0.080700
     24 H142       -50.5620   -27.3770     5.0580 h1         1 QU3       0.069700
     25 H141       -49.3710   -27.0520     6.3210 h1         1 QU3       0.069700
     26 H012       -56.9300   -30.4020     9.3830 h1         1 QU3       0.055367
     27 H013       -55.2010   -30.2450     9.0380 h1         1 QU3       0.055367
     28 H011       -56.3150   -30.8070     7.7680 h1         1 QU3       0.055367
     29 H071       -53.7620   -31.4180     6.0450 ha         1 QU3       0.176000
     30 H091       -50.8570   -30.3050     9.0670 h4         1 QU3       0.062100
     31 H211       -46.7180   -30.6660     8.2170 h4         1 QU3       0.021100
     32 H232       -49.3290   -30.6750     7.4070 h1         1 QU3       0.057200
     33 H231       -49.1030   -29.1110     8.2250 h1         1 QU3       0.057200
     34 H021       -56.7310   -32.7930     9.0860 hn         1 QU3       0.486000
     35 H191       -43.8440   -28.7400     4.2630 hn         1 QU3       0.493500
     36 H192       -43.2200   -29.6450     5.6030 hn         1 QU3       0.493500
     37 C11        -51.4370   -29.6070     6.1480 c          1 QU3       0.641700
     38 S03        -54.7460   -33.1780     8.4830 sy         1 QU3       1.153200
@<TRIPOS>BOND
     1     1    15 ar  
     2     1    16 1   
     3     1    17 ar  
     4     2     3 1   
     5     2    11 ar  
     6     2    15 ar  
     7     3     4 1   
     8     3    22 1   
     9     3    23 1   
    10     4    14 1   
    11     4    24 1   
    12     4    25 1   
    13     5    13 1   
    14     5    26 1   
    15     5    27 1   
    16     5    28 1   
    17     6     7 2   
    18     6    20 1   
    19     6    38 1   
    20     7     8 1   
    21     7    29 1   
    22     8     9 2   
    23     8    37 1   
    24     9    20 1   
    25     9    30 1   
    26    10    11 ar  
    27    10    17 ar  
    28    10    31 1   
    29    11    12 1   
    30    12    14 1   
    31    12    32 1   
    32    12    33 1   
    33    13    34 1   
    34    13    38 1   
    35    14    37 1   
    36    16    35 1   
    37    16    36 1   
    38    18    38 2   
    39    19    38 2   
    40    21    37 2   
@<TRIPOS>SUBSTRUCTURE
     1 QU3         1 TEMP              0 ****  ****    0 ROOT
