@<TRIPOS>MOLECULE
QU4
   42    44     1     0     0
SMALL
No Charge or Current Charge


@<TRIPOS>ATOM
      1 CAJ         -5.7180    12.0280    -7.3270 ca         1 QU4      -0.247000
      2 CAK        -10.6780    12.4550   -11.3860 ca         1 QU4      -0.247000
      3 CAL         -6.2410    11.1880    -8.3240 ca         1 QU4      -0.040000
      4 CAM         -9.5420    12.0340   -10.6800 ca         1 QU4      -0.040000
      5 CAN         -6.3170     7.6090   -11.3730 cc         1 QU4      -0.350200
      6 CAO         -6.8970     8.8280   -11.1130 cd         1 QU4      -0.095000
      7 CAP         -8.4890    11.8880    -7.7210 ca         1 QU4      -0.009500
      8 CAQ        -10.3880     9.7540   -10.7100 ca         1 QU4      -0.009500
      9 CAR         -7.6890     7.9210    -8.9170 cd         1 QU4      -0.129000
     10 CAW         -6.5750    12.8020    -6.5320 ca         1 QU4       0.190600
     11 CAX        -11.6670    11.5340   -11.7520 ca         1 QU4       0.190600
     12 CAY         -7.6320    11.1170    -8.5360 ca         1 QU4      -0.152800
     13 CAZ         -9.3940    10.6790   -10.3260 ca         1 QU4      -0.152800
     14 CBA         -7.9650    12.7380    -6.7260 ca         1 QU4      -0.244100
     15 CBB        -11.5390    10.1670   -11.4230 ca         1 QU4      -0.244100
     16 CBC         -7.0990     6.6840    -9.1810 cc         1 QU4      -0.265400
     17 CBD         -6.3670     6.4610   -10.4540 c          1 QU4       0.583500
     18 CBE         -7.5930     8.9930    -9.8720 cd         1 QU4      -0.127000
     19 OAA         -9.6820    12.9390    -5.1660 o          1 QU4      -0.714750
     20 OAB        -12.4260     7.9830   -11.4890 o          1 QU4      -0.714750
     21 OAC         -7.8300     5.8260    -7.1370 o          1 QU4      -0.734000
     22 OAF        -13.5710     9.5340   -12.4360 o          1 QU4      -0.714750
     23 OAG         -6.7140     4.4980    -8.3600 o          1 QU4      -0.734000
     24 OAH         -6.0370    13.5880    -5.5590 oh         1 QU4      -0.577100
     25 H1          -4.6420    12.0680    -7.1780 ha         1 QU4       0.086000
     26 H2         -10.7860    13.5030   -11.6530 ha         1 QU4       0.086000
     27 H3          -5.5630    10.5940    -8.9340 ha         1 QU4       0.103000
     28 H4          -8.7760    12.7600   -10.4160 ha         1 QU4       0.103000
     29 H5          -5.7800     7.4350   -12.2980 ha         1 QU4       0.155000
     30 H7          -6.8310     9.6450   -11.8290 ha         1 QU4       0.169000
     31 H8          -9.5670    11.8280    -7.8540 ha         1 QU4       0.142500
     32 H9         -10.2610     8.7060   -10.4430 ha         1 QU4       0.142500
     33 H10         -8.2260     8.0960    -7.9860 ha         1 QU4       0.205000
     34 H15         -5.0620    13.4840    -5.5960 ho         1 QU4       0.483500
     35 H16        -13.3000    11.1660   -12.5890 ho         1 QU4       0.483500
     36 CAS         -8.9030    13.5450    -5.8880 c          1 QU4       0.726600
     37 CAV         -8.1810    10.2050    -9.5880 ce         1 QU4       0.121600
     38 OAD         -5.8160     5.4190   -10.7850 o          1 QU4      -0.590100
     39 CAT        -12.5910     9.1490   -11.8120 c          1 QU4       0.726600
     40 CAU         -7.2160     5.5940    -8.1680 c          1 QU4       0.726200
     41 OAE         -8.9340    14.7560    -6.0550 o          1 QU4      -0.714750
     42 OAI        -12.7510    11.9830   -12.4360 oh         1 QU4      -0.577100
@<TRIPOS>BOND
     1     1     3 ar  
     2     1    10 ar  
     3     1    25 1   
     4     2     4 ar  
     5     2    11 ar  
     6     2    26 1   
     7     3    12 ar  
     8     3    27 1   
     9     4    13 ar  
    10     4    28 1   
    11     5     6 2   
    12     5    17 1   
    13     5    29 1   
    14     6    18 1   
    15     6    30 1   
    16     7    12 ar  
    17     7    14 ar  
    18     7    31 1   
    19     8    13 ar  
    20     8    15 ar  
    21     8    32 1   
    22     9    16 2   
    23     9    18 1   
    24     9    33 1   
    25    10    14 ar  
    26    10    24 1   
    27    11    15 ar  
    28    11    42 1   
    29    12    37 1   
    30    13    37 1   
    31    14    36 1   
    32    15    39 1   
    33    16    17 1   
    34    16    40 1   
    35    17    38 2   
    36    18    37 2   
    37    19    36 1   
    38    20    39 1   
    39    21    40 1   
    40    22    39 1   
    41    23    40 1   
    42    24    34 1   
    43    35    42 1   
    44    36    41 1   
@<TRIPOS>SUBSTRUCTURE
     1 QU4         1 TEMP              0 ****  ****    0 ROOT
