@<TRIPOS>MOLECULE
QU4
   42    44     1     0     0
SMALL
bcc


@<TRIPOS>ATOM
      1 CAJ         -5.9400    11.8570    -7.2170 ca         1 QU4      -0.265000
      2 CAK        -10.3670    12.5780   -11.5310 ca         1 QU4      -0.265000
      3 CAL         -6.3850    11.0560    -8.2440 ca         1 QU4      -0.058000
      4 CAM         -9.3440    12.0400   -10.7850 ca         1 QU4      -0.058000
      5 CAN         -7.2550     7.0510   -11.4050 cc         1 QU4      -0.300200
      6 CAO         -7.8490     8.2340   -11.1530 cd         1 QU4      -0.045000
      7 CAP         -8.6270    11.7110    -7.7360 ca         1 QU4      -0.027500
      8 CAQ        -10.4190     9.8960   -10.8250 ca         1 QU4      -0.027500
      9 CAR         -6.9890     8.1420    -8.8700 cd         1 QU4      -0.079000
     10 CAW         -6.8340    12.5920    -6.4280 ca         1 QU4       0.190600
     11 CAX        -11.4520    11.7800   -11.9240 ca         1 QU4       0.190600
     12 CAY         -7.7520    10.9590    -8.5240 ca         1 QU4      -0.152800
     13 CAZ         -9.3350    10.6810   -10.4250 ca         1 QU4      -0.152800
     14 CBA         -8.2170    12.5230    -6.6870 ca         1 QU4      -0.244100
     15 CBB        -11.4750    10.4170   -11.5530 ca         1 QU4      -0.244100
     16 CBC         -6.4460     6.9130    -9.0620 cc         1 QU4      -0.265400
     17 CBD         -6.4780     6.3210   -10.4060 c          1 QU4       0.583500
     18 CBE         -7.7200     8.8730    -9.8700 cd         1 QU4      -0.127000
     19 OAA        -10.4730    12.9740    -6.1760 o          1 QU4      -0.820050
     20 OAB        -12.6830     8.3770   -11.6000 o          1 QU4      -0.820050
     21 OAC         -5.3850     6.9020    -6.9530 o          1 QU4      -0.839300
     22 OAF        -13.5610    10.1610   -12.6040 o          1 QU4      -0.820050
     23 OAG         -5.9390     4.9410    -7.8550 o          1 QU4      -0.839300
     24 OAH         -6.3620    13.3510    -5.4310 oh         1 QU4      -0.538100
     25 H1          -4.8750    11.9300    -7.0240 ha         1 QU4       0.104000
     26 H2         -10.3450    13.6220   -11.8170 ha         1 QU4       0.104000
     27 H3          -5.6640    10.5260    -8.8530 ha         1 QU4       0.121000
     28 H4          -8.5180    12.6750   -10.4910 ha         1 QU4       0.121000
     29 H5          -7.3020     6.6210   -12.3990 ha         1 QU4       0.105000
     30 H7          -8.3660     8.7510   -11.9510 ha         1 QU4       0.119000
     31 H8          -9.6900    11.6480    -7.9240 ha         1 QU4       0.160500
     32 H9         -10.4650     8.8560   -10.5260 ha         1 QU4       0.160500
     33 H10         -6.9350     8.5640    -7.8750 ha         1 QU4       0.155000
     34 H15         -5.4010    13.2660    -5.3890 ho         1 QU4       0.444500
     35 H16        -13.0940    11.4940   -12.7450 ho         1 QU4       0.444500
     36 CAS         -9.2960    13.2850    -5.9050 c          1 QU4       0.937200
     37 CAV         -8.2520    10.1270    -9.6180 ce         1 QU4       0.121600
     38 OAD         -5.8710     5.2990   -10.7250 o          1 QU4      -0.590100
     39 CAT        -12.6560     9.5610   -11.9370 c          1 QU4       0.937200
     40 CAU         -5.8580     6.1820    -7.8560 c          1 QU4       0.936800
     41 OAE         -8.9200    14.1420    -5.0900 o          1 QU4      -0.820050
     42 OAI        -12.4420    12.3040   -12.6180 oh         1 QU4      -0.538100
@<TRIPOS>BOND
     1     1     3 ar  
     2     1    10 ar  
     3     1    25 1   
     4     2     4 ar  
     5     2    11 ar  
     6     2    26 1   
     7     3    12 ar  
     8     3    27 1   
     9     4    13 ar  
    10     4    28 1   
    11     5     6 2   
    12     5    17 1   
    13     5    29 1   
    14     6    18 1   
    15     6    30 1   
    16     7    12 ar  
    17     7    14 ar  
    18     7    31 1   
    19     8    13 ar  
    20     8    15 ar  
    21     8    32 1   
    22     9    16 2   
    23     9    18 1   
    24     9    33 1   
    25    10    14 ar  
    26    10    24 1   
    27    11    15 ar  
    28    11    42 1   
    29    12    37 1   
    30    13    37 1   
    31    14    36 1   
    32    15    39 1   
    33    16    17 1   
    34    16    40 1   
    35    17    38 2   
    36    18    37 2   
    37    19    36 1   
    38    20    39 1   
    39    21    40 1   
    40    22    39 1   
    41    23    40 1   
    42    24    34 1   
    43    35    42 1   
    44    36    41 1   
@<TRIPOS>SUBSTRUCTURE
     1 QU4         1 TEMP              0 ****  ****    0 ROOT
