@<TRIPOS>MOLECULE
QU5
   19    19     1     0     0
SMALL
No Charge or Current Charge


@<TRIPOS>ATOM
      1 CAI         -0.5050   -19.9820    19.8210 c3         1 QU5       0.143900
      2 OAH         -1.0990   -18.7400    19.4030 os         1 QU5      -0.441000
      3 CAE         -0.7620   -18.2670    18.0860 c6         1 QU5       0.233700
      4 CAD         -1.6580   -17.0850    17.7520 c2         1 QU5      -0.209700
      5 CAC         -1.2340   -15.8070    17.7920 c2         1 QU5      -0.198200
      6 CAB          0.1850   -15.4160    18.1760 c6         1 QU5       0.174700
      7 SAG          0.2370   -14.6810    19.8880 sh         1 QU5      -0.443800
      8 CAA          1.1330   -16.6000    18.0560 c2         1 QU5      -0.198200
      9 CAF          0.7090   -17.8770    18.0170 c2         1 QU5      -0.209700
     10 H1          -0.8770   -20.2670    20.8130 h1         1 QU5       0.028700
     11 H2          -0.7540   -20.7890    19.1190 h1         1 QU5       0.028700
     12 H3           0.5870   -19.8970    19.8810 h1         1 QU5       0.028700
     13 H4          -0.9590   -19.0730    17.3630 h1         1 QU5       0.046700
     14 H5          -2.6840   -17.3280    17.4750 ha         1 QU5       0.182500
     15 H6          -1.9080   -14.9860    17.5470 ha         1 QU5       0.184000
     16 H7           2.1960   -16.3610    17.9940 ha         1 QU5       0.184000
     17 H8           1.4200   -18.6980    17.9170 ha         1 QU5       0.182500
     18 H9           0.5230   -14.6400    17.4720 h1         1 QU5       0.076700
     19 H10          1.5690   -14.4350    19.8850 hs         1 QU5       0.204800
@<TRIPOS>BOND
     1     1     2 1   
     2     1    10 1   
     3     1    11 1   
     4     1    12 1   
     5     2     3 1   
     6     3     4 1   
     7     3     9 1   
     8     3    13 1   
     9     4     5 2   
    10     4    14 1   
    11     5     6 1   
    12     5    15 1   
    13     6     7 1   
    14     6     8 1   
    15     6    18 1   
    16     7    19 1   
    17     8     9 2   
    18     8    16 1   
    19     9    17 1   
@<TRIPOS>SUBSTRUCTURE
     1 QU5         1 TEMP              0 ****  ****    0 ROOT
