@<TRIPOS>MOLECULE
QU5
   19    19     1     0     0
SMALL
abcg2


@<TRIPOS>ATOM
      1 CAI         -0.6730   -20.2510    19.5400 c3         1 QU5       0.143900
      2 OAH         -1.0820   -18.9070    19.4570 os         1 QU5      -0.441000
      3 CAE         -0.6550   -18.2450    18.2770 c6         1 QU5       0.233700
      4 CAD         -1.5830   -17.0930    18.0500 c2         1 QU5      -0.209700
      5 CAC         -1.1860   -15.8320    17.9370 c2         1 QU5      -0.198200
      6 CAB          0.2400   -15.4100    18.0520 c6         1 QU5       0.174700
      7 SAG          0.3360   -14.2190    19.4630 sh         1 QU5      -0.443800
      8 CAA          1.1750   -16.5510    18.2710 c2         1 QU5      -0.198200
      9 CAF          0.7780   -17.8140    18.3720 c2         1 QU5      -0.209700
     10 H1          -1.1240   -20.6770    20.4360 h1         1 QU5       0.028700
     11 H2          -1.0080   -20.8340    18.6750 h1         1 QU5       0.028700
     12 H3           0.4130   -20.3630    19.6230 h1         1 QU5       0.028700
     13 H4          -0.7580   -18.9380    17.4250 h1         1 QU5       0.046700
     14 H5          -2.6350   -17.3360    17.9520 ha         1 QU5       0.182500
     15 H6          -1.9120   -15.0480    17.7520 ha         1 QU5       0.184000
     16 H7           2.2280   -16.3060    18.3430 ha         1 QU5       0.184000
     17 H8           1.5200   -18.5900    18.5270 ha         1 QU5       0.182500
     18 H9           0.5300   -14.8430    17.1640 h1         1 QU5       0.076700
     19 H10          1.5150   -13.6740    19.1400 hs         1 QU5       0.204800
@<TRIPOS>BOND
     1     1     2 1   
     2     1    10 1   
     3     1    11 1   
     4     1    12 1   
     5     2     3 1   
     6     3     4 1   
     7     3     9 1   
     8     3    13 1   
     9     4     5 2   
    10     4    14 1   
    11     5     6 1   
    12     5    15 1   
    13     6     7 1   
    14     6     8 1   
    15     6    18 1   
    16     7    19 1   
    17     8     9 2   
    18     8    16 1   
    19     9    17 1   
@<TRIPOS>SUBSTRUCTURE
     1 QU5         1 TEMP              0 ****  ****    0 ROOT
