@<TRIPOS>MOLECULE
QU6
   58    62     1     0     0
SMALL
No Charge or Current Charge


@<TRIPOS>ATOM
      1 N1         -82.6250   -20.9750    84.6700 nu         1 QU6      -0.936900
      2 N3         -79.9160   -17.9360    89.5290 nb         1 QU6      -0.665000
      3 C4         -85.1730   -20.0460    87.2610 ca         1 QU6      -0.133600
      4 C5         -85.4750   -18.8670    88.1700 c          1 QU6       0.615700
      5 C6         -87.1880   -18.1480    89.9530 ca         1 QU6       0.012000
      6 C7         -86.6780   -16.8790    90.3040 ca         1 QU6      -0.166000
      7 C8         -87.3200   -16.0880    91.2700 ca         1 QU6       0.163100
      8 C10        -88.4890   -16.5640    91.9000 ca         1 QU6      -0.222000
      9 C13        -84.0600   -19.9840    86.3920 ca         1 QU6      -0.064000
     10 C15        -81.4050   -20.3220    84.7280 ca         1 QU6       0.461900
     11 C17        -79.3870   -18.4930    87.2020 cp         1 QU6      -0.215500
     12 C20        -78.7170   -17.3260    89.6370 ca         1 QU6       0.350900
     13 C21        -80.2370   -18.5020    88.3410 ca         1 QU6       0.388900
     14 C22        -79.3470   -19.6700    83.7270 ca         1 QU6       0.166500
     15 C24        -80.6670   -20.8020    82.2980 cc         1 QU6       0.387800
     16 N          -86.5920   -19.0030    88.9860 ns         1 QU6      -0.143000
     17 O          -86.7680   -14.8580    91.5650 os         1 QU6      -0.343100
     18 C1         -84.5480   -22.2060    85.5200 ca         1 QU6      -0.098300
     19 C11        -89.0030   -17.8240    91.5580 ca         1 QU6      -0.047000
     20 C12        -88.3540   -18.6080    90.5910 ca         1 QU6      -0.205000
     21 C14        -83.7300   -21.0520    85.5340 ca         1 QU6       0.296000
     22 C16        -79.8050   -19.1430    85.9140 cp         1 QU6       0.275500
     23 C18        -78.1320   -17.8440    87.3470 ca         1 QU6      -0.031000
     24 C19        -77.8030   -17.2570    88.5780 ca         1 QU6      -0.186000
     25 C2         -85.6600   -22.2760    86.3810 ca         1 QU6      -0.096000
     26 C23        -80.5530   -20.2920    83.6360 ca         1 QU6      -0.391900
     27 C3         -85.9700   -21.2150    87.2450 ca         1 QU6      -0.104000
     28 C9         -87.3460   -13.9710    92.5390 c3         1 QU6       0.148900
     29 N2         -81.0180   -19.7500    85.8810 nb         1 QU6      -0.287000
     30 N4         -78.9450   -19.0800    84.8660 nb         1 QU6      -0.225000
     31 N5         -79.5780   -20.5190    81.5700 nd         1 QU6      -0.517100
     32 N6         -78.7810   -19.8210    82.4760 na         1 QU6      -0.032100
     33 O1         -84.7620   -17.8690    88.1660 o          1 QU6      -0.566100
     34 H14        -82.6810   -21.6230    83.8900 hn         1 QU6       0.503000
     35 H6         -85.7810   -16.4810    89.8430 ha         1 QU6       0.167000
     36 H10        -89.0080   -15.9760    92.6510 ha         1 QU6       0.118000
     37 H13        -83.4550   -19.0840    86.3690 ha         1 QU6       0.163000
     38 H17        -78.4840   -16.8780    90.6030 h4         1 QU6       0.019100
     39 H18        -81.2160   -18.9800    88.3070 h4         1 QU6       0.052100
     40 H19        -81.4620   -21.3520    81.8110 h4         1 QU6       0.046800
     41 H5         -87.0790   -19.8810    88.8730 hn         1 QU6       0.151000
     42 H2         -83.2300   -23.7670    84.7580 hc         1 QU6       0.046700
     43 H1         -84.9340   -24.2260    84.7730 hc         1 QU6       0.046700
     44 H          -84.3440   -23.1040    83.5440 hc         1 QU6       0.046700
     45 H11        -89.9040   -18.1950    92.0430 ha         1 QU6       0.110000
     46 H12        -88.7640   -19.5830    90.3370 ha         1 QU6       0.109000
     47 H15        -77.4210   -17.7910    86.5240 ha         1 QU6       0.135000
     48 H16        -76.8500   -16.7540    88.7150 ha         1 QU6       0.123000
     49 H3         -86.2920   -23.1620    86.3830 ha         1 QU6       0.118000
     50 H22        -77.2140   -19.5360    81.0830 h1         1 QU6       0.059700
     51 H20        -77.4470   -18.2030    82.2520 h1         1 QU6       0.059700
     52 H21        -76.6950   -19.7370    82.7830 h1         1 QU6       0.059700
     53 H4         -86.8380   -21.3200    87.8920 ha         1 QU6       0.116000
     54 H9         -86.7510   -13.0530    92.6170 h1         1 QU6       0.041033
     55 H8         -88.3680   -13.6900    92.2540 h1         1 QU6       0.041033
     56 H7         -87.3740   -14.4430    93.5300 h1         1 QU6       0.041033
     57 C25        -77.4520   -19.2920    82.1250 c3         1 QU6       0.088900
     58 C          -84.2470   -23.3890    84.5990 c3         1 QU6      -0.052800
@<TRIPOS>BOND
     1     1    10 1   
     2     1    21 1   
     3     1    34 1   
     4     2    12 ar  
     5     2    13 ar  
     6     3     4 1   
     7     3     9 ar  
     8     3    27 ar  
     9     4    16 1   
    10     4    33 2   
    11     5     6 ar  
    12     5    16 1   
    13     5    20 ar  
    14     6     7 ar  
    15     6    35 1   
    16     7     8 ar  
    17     7    17 1   
    18     8    19 ar  
    19     8    36 1   
    20     9    21 ar  
    21     9    37 1   
    22    10    26 ar  
    23    10    29 ar  
    24    11    13 ar  
    25    11    22 1   
    26    11    23 ar  
    27    12    24 ar  
    28    12    38 1   
    29    13    39 1   
    30    14    26 ar  
    31    14    30 ar  
    32    14    32 1   
    33    15    26 1   
    34    15    31 2   
    35    15    40 1   
    36    16    41 1   
    37    17    28 1   
    38    18    21 ar  
    39    18    25 ar  
    40    18    58 1   
    41    19    20 ar  
    42    19    45 1   
    43    20    46 1   
    44    22    29 ar  
    45    22    30 ar  
    46    23    24 ar  
    47    23    47 1   
    48    24    48 1   
    49    25    27 ar  
    50    25    49 1   
    51    27    53 1   
    52    28    54 1   
    53    28    55 1   
    54    28    56 1   
    55    31    32 1   
    56    32    57 1   
    57    42    58 1   
    58    43    58 1   
    59    44    58 1   
    60    50    57 1   
    61    51    57 1   
    62    52    57 1   
@<TRIPOS>SUBSTRUCTURE
     1 QU6         1 TEMP              0 ****  ****    0 ROOT
