@<TRIPOS>MOLECULE
QU6
   58    62     1     0     0
SMALL
abcg2


@<TRIPOS>ATOM
      1 N1         -82.7130   -21.0850    84.6640 nu         1 QU6      -0.936900
      2 N3         -80.5760   -17.5060    89.2690 nb         1 QU6      -0.665000
      3 C4         -85.0770   -20.3000    87.4240 ca         1 QU6      -0.133600
      4 C5         -85.2940   -19.1580    88.3670 c          1 QU6       0.615700
      5 C6         -87.0760   -18.1210    89.7820 ca         1 QU6       0.012000
      6 C7         -86.3010   -17.1630    90.4280 ca         1 QU6      -0.166000
      7 C8         -86.9020   -16.2710    91.3210 ca         1 QU6       0.163100
      8 C10        -88.2700   -16.3320    91.5800 ca         1 QU6      -0.222000
      9 C13        -84.0330   -20.1730    86.5110 ca         1 QU6      -0.064000
     10 C15        -81.5520   -20.3830    84.7280 ca         1 QU6       0.461900
     11 C17        -79.7910   -18.2790    87.1270 cp         1 QU6      -0.215500
     12 C20        -79.3890   -16.9240    89.4670 ca         1 QU6       0.350900
     13 C21        -80.7640   -18.1670    88.1250 ca         1 QU6       0.388900
     14 C22        -79.4780   -19.6420    83.8140 ca         1 QU6       0.166500
     15 C24        -80.5450   -20.9210    82.3250 cc         1 QU6       0.387800
     16 N          -86.5560   -19.0550    88.8730 ns         1 QU6      -0.143000
     17 O          -86.0560   -15.3700    91.8920 os         1 QU6      -0.343100
     18 C1         -84.5240   -22.3690    85.6020 ca         1 QU6      -0.098300
     19 C11        -89.0300   -17.3020    90.9280 ca         1 QU6      -0.047000
     20 C12        -88.4550   -18.1900    90.0370 ca         1 QU6      -0.205000
     21 C14        -83.7460   -21.1950    85.6120 ca         1 QU6       0.296000
     22 C16        -80.0640   -19.0210    85.8730 cp         1 QU6       0.275500
     23 C18        -78.5610   -17.6600    87.3520 ca         1 QU6      -0.031000
     24 C19        -78.3560   -16.9750    88.5390 ca         1 QU6      -0.186000
     25 C2         -85.5610   -22.4760    86.5240 ca         1 QU6      -0.096000
     26 C23        -80.6570   -20.3850    83.6310 ca         1 QU6      -0.391900
     27 C3         -85.8420   -21.4660    87.4330 ca         1 QU6      -0.104000
     28 C9         -86.5980   -14.4220    92.8100 c3         1 QU6       0.148900
     29 N2         -81.2280   -19.7020    85.8250 nb         1 QU6      -0.287000
     30 N4         -79.1480   -18.9480    84.9110 nb         1 QU6      -0.225000
     31 N5         -79.4070   -20.5420    81.7670 nd         1 QU6      -0.517100
     32 N6         -78.7580   -19.7620    82.6750 na         1 QU6      -0.032100
     33 O1         -84.3870   -18.3760    88.6410 o          1 QU6      -0.566100
     34 H14        -82.8160   -21.6580    83.8410 hn         1 QU6       0.503000
     35 H6         -85.2430   -17.0930    90.2450 ha         1 QU6       0.167000
     36 H10        -88.7440   -15.6490    92.2690 ha         1 QU6       0.118000
     37 H13        -83.4470   -19.2710    86.5070 ha         1 QU6       0.163000
     38 H17        -79.2600   -16.3960    90.4060 h4         1 QU6       0.019100
     39 H18        -81.7340   -18.6250    87.9850 h4         1 QU6       0.052100
     40 H19        -81.2310   -21.5510    81.7810 h4         1 QU6       0.046800
     41 H5         -87.2380   -19.6980    88.5020 hn         1 QU6       0.151000
     42 H2         -83.2070   -23.8290    84.7210 hc         1 QU6       0.046700
     43 H1         -84.9030   -24.3260    84.8170 hc         1 QU6       0.046700
     44 H          -84.3870   -23.1630    83.5980 hc         1 QU6       0.046700
     45 H11        -90.0940   -17.3580    91.1220 ha         1 QU6       0.110000
     46 H12        -89.0570   -18.9380    89.5370 ha         1 QU6       0.109000
     47 H15        -77.7840   -17.7230    86.6040 ha         1 QU6       0.135000
     48 H16        -77.4130   -16.4880    88.7460 ha         1 QU6       0.123000
     49 H3         -86.1520   -23.3840    86.5380 ha         1 QU6       0.118000
     50 H22        -77.1880   -19.4710    81.3750 h1         1 QU6       0.059700
     51 H20        -77.5200   -18.0900    82.4450 h1         1 QU6       0.059700
     52 H21        -76.7170   -19.5400    83.0890 h1         1 QU6       0.059700
     53 H4         -86.6340   -21.6160    88.1560 ha         1 QU6       0.116000
     54 H9         -85.7610   -13.8070    93.1310 h1         1 QU6       0.041033
     55 H8         -87.3520   -13.7950    92.3280 h1         1 QU6       0.041033
     56 H7         -87.0400   -14.9220    93.6760 h1         1 QU6       0.041033
     57 C25        -77.4640   -19.1770    82.3830 c3         1 QU6       0.088900
     58 C          -84.2400   -23.4830    84.6350 c3         1 QU6      -0.052800
@<TRIPOS>BOND
     1     1    10 1   
     2     1    21 1   
     3     1    34 1   
     4     2    12 ar  
     5     2    13 ar  
     6     3     4 1   
     7     3     9 ar  
     8     3    27 ar  
     9     4    16 1   
    10     4    33 2   
    11     5     6 ar  
    12     5    16 1   
    13     5    20 ar  
    14     6     7 ar  
    15     6    35 1   
    16     7     8 ar  
    17     7    17 1   
    18     8    19 ar  
    19     8    36 1   
    20     9    21 ar  
    21     9    37 1   
    22    10    26 ar  
    23    10    29 ar  
    24    11    13 ar  
    25    11    22 1   
    26    11    23 ar  
    27    12    24 ar  
    28    12    38 1   
    29    13    39 1   
    30    14    26 ar  
    31    14    30 ar  
    32    14    32 1   
    33    15    26 1   
    34    15    31 2   
    35    15    40 1   
    36    16    41 1   
    37    17    28 1   
    38    18    21 ar  
    39    18    25 ar  
    40    18    58 1   
    41    19    20 ar  
    42    19    45 1   
    43    20    46 1   
    44    22    29 ar  
    45    22    30 ar  
    46    23    24 ar  
    47    23    47 1   
    48    24    48 1   
    49    25    27 ar  
    50    25    49 1   
    51    27    53 1   
    52    28    54 1   
    53    28    55 1   
    54    28    56 1   
    55    31    32 1   
    56    32    57 1   
    57    42    58 1   
    58    43    58 1   
    59    44    58 1   
    60    50    57 1   
    61    51    57 1   
    62    52    57 1   
@<TRIPOS>SUBSTRUCTURE
     1 QU6         1 TEMP              0 ****  ****    0 ROOT
