@<TRIPOS>MOLECULE
QU7
   63    66     1     0     0
SMALL
No Charge or Current Charge


@<TRIPOS>ATOM
      1 C01         11.0970    -1.7030    13.9660 c5         1 QU7      -0.104700
      2 C02          9.6290    -1.3610    14.3550 c5         1 QU7       0.168300
      3 C04          9.4440    -0.0620    13.5390 c5         1 QU7      -0.076400
      4 C05          9.8630    -0.5370    12.1210 c5         1 QU7      -0.069400
      5 C06         11.0940    -1.4810    12.4090 c5         1 QU7       0.042400
      6 C07         12.4220    -0.8540    11.9100 ce         1 QU7      -0.044400
      7 C08         13.6570    -0.9650    12.7370 ca         1 QU7      -0.054800
      8 C09         14.3190    -2.1990    12.8680 ca         1 QU7      -0.103000
      9 C10         15.4840    -2.3020    13.6470 ca         1 QU7      -0.114500
     10 C11         15.9970    -1.1650    14.2950 ca         1 QU7      -0.110000
     11 C12         15.3460     0.0730    14.1600 ca         1 QU7      -0.114500
     12 C13         14.1800     0.1730    13.3800 ca         1 QU7      -0.103000
     13 C14         12.5720    -0.2470    10.7100 c2         1 QU7      -0.306000
     14 C15         10.8090    -2.8930    11.9130 ce         1 QU7      -0.069400
     15 C16         10.4610    -3.1670    10.4900 ca         1 QU7      -0.036800
     16 C17         11.4490    -3.1120     9.4890 ca         1 QU7      -0.101000
     17 C18         11.1180    -3.3820     8.1500 ca         1 QU7      -0.113000
     18 C19          9.7960    -3.7100     7.8050 ca         1 QU7      -0.110000
     19 C20          8.8060    -3.7690     8.8000 ca         1 QU7      -0.113000
     20 C21          9.1390    -3.5000    10.1390 ca         1 QU7      -0.101000
     21 C22         10.8800    -3.8770    12.8290 c2         1 QU7      -0.103400
     22 C23         10.6620    -5.3710    12.6580 c3         1 QU7      -0.030200
     23 C24         11.9790    -6.1720    12.5570 c3         1 QU7      -0.068400
     24 C25         12.7750    -5.8920    11.2630 c3         1 QU7      -0.081400
     25 C26         14.0980    -6.6830    11.1780 c3         1 QU7      -0.075400
     26 C27         14.8980    -6.3750     9.8930 c3         1 QU7      -0.076400
     27 C28         16.2220    -7.1580     9.8050 c3         1 QU7      -0.088100
     28 C29         11.2910    -3.2510    14.1520 c5         1 QU7      -0.042200
     29 O03          9.4780    -1.1320    15.7540 oh         1 QU7      -0.654000
     30 H1          11.8140    -1.0890    14.5190 hc         1 QU7       0.079700
     31 H2           8.9230    -2.1330    14.0140 h1         1 QU7       0.031700
     32 H3          10.0890     0.7470    13.9020 hc         1 QU7       0.057200
     33 H4           8.4110     0.3040    13.5640 hc         1 QU7       0.057200
     34 H5          10.0920     0.3170    11.4770 hc         1 QU7       0.051700
     35 H6           9.0370    -1.0740    11.6420 hc         1 QU7       0.051700
     36 H7          13.9260    -3.0790    12.3660 ha         1 QU7       0.118500
     37 H8          15.9880    -3.2600    13.7470 ha         1 QU7       0.111500
     38 H9          16.8990    -1.2430    14.8980 ha         1 QU7       0.111000
     39 H10         15.7430     0.9540    14.6590 ha         1 QU7       0.111500
     40 H11         13.6770     1.1320    13.2790 ha         1 QU7       0.118500
     41 H12         11.7510    -0.1510    10.0010 ha         1 QU7       0.169000
     42 H13         13.5330     0.1560    10.3920 ha         1 QU7       0.169000
     43 H15         12.4750    -2.8690     9.7510 ha         1 QU7       0.115500
     44 H16         11.8870    -3.3390     7.3820 ha         1 QU7       0.112000
     45 H17          9.5400    -3.9190     6.7680 ha         1 QU7       0.111000
     46 H18          7.7830    -4.0250     8.5350 ha         1 QU7       0.112000
     47 H19          8.3710    -3.5500    10.9070 ha         1 QU7       0.115500
     48 H21         10.0520    -5.5800    11.7720 hc         1 QU7       0.049700
     49 H22         10.0860    -5.7510    13.5110 hc         1 QU7       0.049700
     50 H23         11.7420    -7.2420    12.6020 hc         1 QU7       0.039200
     51 H24         13.0010    -4.8230    11.2010 hc         1 QU7       0.043200
     52 H25         13.8800    -7.7570    11.2210 hc         1 QU7       0.035200
     53 H26         14.7160    -6.4440    12.0520 hc         1 QU7       0.035200
     54 H27         15.1150    -5.3010     9.8490 hc         1 QU7       0.037700
     55 H28         14.2830    -6.6140     9.0160 hc         1 QU7       0.037700
     56 H29         16.7530    -6.9070     8.8790 hc         1 QU7       0.031367
     57 H30         16.8750    -6.9130    10.6520 hc         1 QU7       0.031367
     58 H31         16.0350    -8.2390     9.8120 hc         1 QU7       0.031367
     59 H32         10.7050    -3.6530    14.9870 hc         1 QU7       0.052700
     60 H33         12.3370    -3.4920    14.3700 hc         1 QU7       0.052700
     61 H34          9.6740    -1.9830    16.2020 ho         1 QU7       0.442000
     62 H14         12.6050    -5.9500    13.4300 hc         1 QU7       0.039200
     63 H20         12.1500    -6.1360    10.3950 hc         1 QU7       0.043200
@<TRIPOS>BOND
     1     1     2 1   
     2     1     5 1   
     3     1    28 1   
     4     1    30 1   
     5     2     3 1   
     6     2    29 1   
     7     2    31 1   
     8     3     4 1   
     9     3    32 1   
    10     3    33 1   
    11     4     5 1   
    12     4    34 1   
    13     4    35 1   
    14     5     6 1   
    15     5    14 1   
    16     6     7 1   
    17     6    13 2   
    18     7     8 ar  
    19     7    12 ar  
    20     8     9 ar  
    21     8    36 1   
    22     9    10 ar  
    23     9    37 1   
    24    10    11 ar  
    25    10    38 1   
    26    11    12 ar  
    27    11    39 1   
    28    12    40 1   
    29    13    41 1   
    30    13    42 1   
    31    14    15 1   
    32    14    21 2   
    33    15    16 ar  
    34    15    20 ar  
    35    16    17 ar  
    36    16    43 1   
    37    17    18 ar  
    38    17    44 1   
    39    18    19 ar  
    40    18    45 1   
    41    19    20 ar  
    42    19    46 1   
    43    20    47 1   
    44    21    22 1   
    45    21    28 1   
    46    22    23 1   
    47    22    48 1   
    48    22    49 1   
    49    23    24 1   
    50    23    50 1   
    51    23    62 1   
    52    24    25 1   
    53    24    51 1   
    54    24    63 1   
    55    25    26 1   
    56    25    52 1   
    57    25    53 1   
    58    26    27 1   
    59    26    54 1   
    60    26    55 1   
    61    27    56 1   
    62    27    57 1   
    63    27    58 1   
    64    28    59 1   
    65    28    60 1   
    66    29    61 1   
@<TRIPOS>SUBSTRUCTURE
     1 QU7         1 TEMP              0 ****  ****    0 ROOT
