@<TRIPOS>MOLECULE
QU7
   63    66     1     0     0
SMALL
abcg2


@<TRIPOS>ATOM
      1 C01         11.0110    -1.7630    13.9420 c5         1 QU7      -0.104700
      2 C02          9.6680    -1.2190    14.4360 c5         1 QU7       0.168300
      3 C04          9.4110    -0.0380    13.5210 c5         1 QU7      -0.076400
      4 C05          9.7690    -0.6020    12.1540 c5         1 QU7      -0.069400
      5 C06         11.0020    -1.5150    12.4020 c5         1 QU7       0.042400
      6 C07         12.3100    -0.9200    11.8900 ce         1 QU7      -0.044400
      7 C08         13.5760    -1.2890    12.5840 ca         1 QU7      -0.054800
      8 C09         14.0780    -2.5900    12.5880 ca         1 QU7      -0.103000
      9 C10         15.2770    -2.8880    13.2200 ca         1 QU7      -0.114500
     10 C11         15.9980    -1.8920    13.8640 ca         1 QU7      -0.110000
     11 C12         15.5100    -0.5930    13.8680 ca         1 QU7      -0.114500
     12 C13         14.3110    -0.2970    13.2340 ca         1 QU7      -0.103000
     13 C14         12.3940    -0.0930    10.8490 c2         1 QU7      -0.306000
     14 C15         10.7770    -2.9210    11.8540 ce         1 QU7      -0.069400
     15 C16         10.4540    -3.1400    10.4310 ca         1 QU7      -0.036800
     16 C17         11.4210    -3.0170     9.4320 ca         1 QU7      -0.101000
     17 C18         11.0950    -3.2160     8.0980 ca         1 QU7      -0.113000
     18 C19          9.7930    -3.5370     7.7360 ca         1 QU7      -0.110000
     19 C20          8.8210    -3.6640     8.7180 ca         1 QU7      -0.113000
     20 C21          9.1500    -3.4640    10.0530 ca         1 QU7      -0.101000
     21 C22         10.8490    -3.8610    12.8020 c2         1 QU7      -0.103400
     22 C23         10.6870    -5.3420    12.6500 c3         1 QU7      -0.030200
     23 C24         12.0320    -6.0830    12.6580 c3         1 QU7      -0.068400
     24 C25         12.7700    -5.9810    11.3280 c3         1 QU7      -0.081400
     25 C26         14.2300    -6.4010    11.4080 c3         1 QU7      -0.075400
     26 C27         14.9820    -6.1990    10.0980 c3         1 QU7      -0.076400
     27 C28         16.4550    -6.5660    10.1970 c3         1 QU7      -0.088100
     28 C29         11.1830    -3.2710    14.1430 c5         1 QU7      -0.042200
     29 O03          9.6610    -0.8330    15.7900 oh         1 QU7      -0.654000
     30 H1          11.8030    -1.1910    14.4330 hc         1 QU7       0.079700
     31 H2           8.8900    -1.9770    14.2490 h1         1 QU7       0.031700
     32 H3          10.0820     0.7850    13.7890 hc         1 QU7       0.057200
     33 H4           8.3870     0.3370    13.5720 hc         1 QU7       0.057200
     34 H5           9.9350     0.1780    11.4150 hc         1 QU7       0.051700
     35 H6           8.9370    -1.2010    11.7750 hc         1 QU7       0.051700
     36 H7          13.5350    -3.3800    12.0860 ha         1 QU7       0.118500
     37 H8          15.6510    -3.9040    13.2040 ha         1 QU7       0.111500
     38 H9          16.9330    -2.1270    14.3570 ha         1 QU7       0.111000
     39 H10         16.0600     0.1940    14.3690 ha         1 QU7       0.111500
     40 H11         13.9340     0.7190    13.2470 ha         1 QU7       0.118500
     41 H12         11.5340     0.2380    10.2840 ha         1 QU7       0.169000
     42 H13         13.3540     0.2690    10.5050 ha         1 QU7       0.169000
     43 H15         12.4410    -2.7750     9.7000 ha         1 QU7       0.115500
     44 H16         11.8620    -3.1240     7.3390 ha         1 QU7       0.112000
     45 H17          9.5390    -3.6910     6.6950 ha         1 QU7       0.111000
     46 H18          7.8040    -3.9170     8.4470 ha         1 QU7       0.112000
     47 H19          8.3860    -3.5600    10.8140 ha         1 QU7       0.115500
     48 H21         10.1500    -5.5850    11.7310 hc         1 QU7       0.049700
     49 H22         10.0700    -5.7080    13.4770 hc         1 QU7       0.049700
     50 H23         11.8640    -7.1360    12.9010 hc         1 QU7       0.039200
     51 H24         12.7180    -4.9530    10.9580 hc         1 QU7       0.043200
     52 H25         14.3030    -7.4500    11.7150 hc         1 QU7       0.035200
     53 H26         14.7260    -5.8240    12.1970 hc         1 QU7       0.035200
     54 H27         14.8850    -5.1520     9.7900 hc         1 QU7       0.037700
     55 H28         14.5050    -6.7880     9.3090 hc         1 QU7       0.037700
     56 H29         16.9750    -6.4020     9.2520 hc         1 QU7       0.031367
     57 H30         16.9570    -5.9660    10.9590 hc         1 QU7       0.031367
     58 H31         16.5840    -7.6150    10.4690 hc         1 QU7       0.031367
     59 H32         10.5280    -3.6660    14.9300 hc         1 QU7       0.052700
     60 H33         12.2030    -3.5330    14.4430 hc         1 QU7       0.052700
     61 H34          9.7950    -1.6170    16.3320 ho         1 QU7       0.442000
     62 H14         12.6610    -5.6860    13.4610 hc         1 QU7       0.039200
     63 H20         12.2480    -6.5810    10.5760 hc         1 QU7       0.043200
@<TRIPOS>BOND
     1     1     2 1   
     2     1     5 1   
     3     1    28 1   
     4     1    30 1   
     5     2     3 1   
     6     2    29 1   
     7     2    31 1   
     8     3     4 1   
     9     3    32 1   
    10     3    33 1   
    11     4     5 1   
    12     4    34 1   
    13     4    35 1   
    14     5     6 1   
    15     5    14 1   
    16     6     7 1   
    17     6    13 2   
    18     7     8 ar  
    19     7    12 ar  
    20     8     9 ar  
    21     8    36 1   
    22     9    10 ar  
    23     9    37 1   
    24    10    11 ar  
    25    10    38 1   
    26    11    12 ar  
    27    11    39 1   
    28    12    40 1   
    29    13    41 1   
    30    13    42 1   
    31    14    15 1   
    32    14    21 2   
    33    15    16 ar  
    34    15    20 ar  
    35    16    17 ar  
    36    16    43 1   
    37    17    18 ar  
    38    17    44 1   
    39    18    19 ar  
    40    18    45 1   
    41    19    20 ar  
    42    19    46 1   
    43    20    47 1   
    44    21    22 1   
    45    21    28 1   
    46    22    23 1   
    47    22    48 1   
    48    22    49 1   
    49    23    24 1   
    50    23    50 1   
    51    23    62 1   
    52    24    25 1   
    53    24    51 1   
    54    24    63 1   
    55    25    26 1   
    56    25    52 1   
    57    25    53 1   
    58    26    27 1   
    59    26    54 1   
    60    26    55 1   
    61    27    56 1   
    62    27    57 1   
    63    27    58 1   
    64    28    59 1   
    65    28    60 1   
    66    29    61 1   
@<TRIPOS>SUBSTRUCTURE
     1 QU7         1 TEMP              0 ****  ****    0 ROOT
