@<TRIPOS>MOLECULE
QU8
   20    20     1     0     0
SMALL
No Charge or Current Charge


@<TRIPOS>ATOM
      1 C4          -7.4720    29.3890    13.0170 ca         1 QU8       0.117100
      2 C3          -6.7800    28.6520    14.0010 ca         1 QU8      -0.145000
      3 C2          -6.3060    27.3600    13.7090 ca         1 QU8      -0.110500
      4 C1          -6.5120    26.7850    12.4400 ca         1 QU8      -0.065000
      5 C           -6.0270    24.6300    11.1150 c          1 QU8       0.605900
      6 OXT         -6.5410    24.8940    10.0310 o          1 QU8      -0.582100
      7 NA          -6.0020    25.4730    12.2200 ns         1 QU8      -0.152000
      8 C5          -7.6800    28.8190    11.7510 ca         1 QU8      -0.145000
      9 C6          -7.2050    27.5280    11.4590 ca         1 QU8      -0.110500
     10 O7          -7.9610    30.6600    13.2420 os         1 QU8      -0.340100
     11 C8          -7.8010    31.3310    14.5050 c3         1 QU8       0.148900
     12 H1          -6.6010    29.0610    14.9910 ha         1 QU8       0.123500
     13 H2          -5.7730    26.8030    14.4780 ha         1 QU8       0.127500
     14 H3          -5.5180    23.6720    11.3270 h5         1 QU8       0.011200
     15 H4          -5.5310    25.0780    13.0230 hn         1 QU8       0.148000
     16 H5          -8.2120    29.3840    10.9900 ha         1 QU8       0.123500
     17 H6          -7.3880    27.1260    10.4670 ha         1 QU8       0.127500
     18 H7          -8.2620    32.3250    14.4680 h1         1 QU8       0.039367
     19 H8          -8.2810    30.7630    15.3120 h1         1 QU8       0.039367
     20 H9          -6.7380    31.4580    14.7470 h1         1 QU8       0.039367
@<TRIPOS>BOND
     1     1     2 ar  
     2     1     8 ar  
     3     1    10 1   
     4     2     3 ar  
     5     2    12 1   
     6     3     4 ar  
     7     3    13 1   
     8     4     7 1   
     9     4     9 ar  
    10     5     6 2   
    11     5     7 1   
    12     5    14 1   
    13     7    15 1   
    14     8     9 ar  
    15     8    16 1   
    16     9    17 1   
    17    10    11 1   
    18    11    18 1   
    19    11    19 1   
    20    11    20 1   
@<TRIPOS>SUBSTRUCTURE
     1 QU8         1 TEMP              0 ****  ****    0 ROOT
