@<TRIPOS>MOLECULE
QU8
   20    20     1     0     0
SMALL
abcg2


@<TRIPOS>ATOM
      1 C4          -7.4870    29.3730    13.0340 ca         1 QU8       0.117100
      2 C3          -6.7940    28.6470    13.9990 ca         1 QU8      -0.145000
      3 C2          -6.3330    27.3720    13.7070 ca         1 QU8      -0.110500
      4 C1          -6.5440    26.7880    12.4610 ca         1 QU8      -0.065000
      5 C           -5.9950    24.7580    11.1310 c          1 QU8       0.605900
      6 OXT         -6.4000    25.0830    10.0320 o          1 QU8      -0.582100
      7 NA          -6.0470    25.4920    12.2610 ns         1 QU8      -0.152000
      8 C5          -7.7020    28.7900    11.7860 ca         1 QU8      -0.145000
      9 C6          -7.2430    27.5170    11.4970 ca         1 QU8      -0.110500
     10 O7          -7.9760    30.6170    13.2130 os         1 QU8      -0.340100
     11 C8          -7.7470    31.2570    14.4500 c3         1 QU8       0.148900
     12 H1          -6.6010    29.0500    14.9840 ha         1 QU8       0.123500
     13 H2          -5.7950    26.8260    14.4730 ha         1 QU8       0.127500
     14 H3          -5.5210    23.7840    11.3220 h5         1 QU8       0.011200
     15 H4          -5.6390    25.0540    13.0730 hn         1 QU8       0.148000
     16 H5          -8.2420    29.3430    11.0280 ha         1 QU8       0.123500
     17 H6          -7.4350    27.1050    10.5190 ha         1 QU8       0.127500
     18 H7          -8.2060    32.2400    14.3810 h1         1 QU8       0.039367
     19 H8          -8.2040    30.7150    15.2830 h1         1 QU8       0.039367
     20 H9          -6.6800    31.3810    14.6570 h1         1 QU8       0.039367
@<TRIPOS>BOND
     1     1     2 ar  
     2     1     8 ar  
     3     1    10 1   
     4     2     3 ar  
     5     2    12 1   
     6     3     4 ar  
     7     3    13 1   
     8     4     7 1   
     9     4     9 ar  
    10     5     6 2   
    11     5     7 1   
    12     5    14 1   
    13     7    15 1   
    14     8     9 ar  
    15     8    16 1   
    16     9    17 1   
    17    10    11 1   
    18    11    18 1   
    19    11    19 1   
    20    11    20 1   
@<TRIPOS>SUBSTRUCTURE
     1 QU8         1 TEMP              0 ****  ****    0 ROOT
