@<TRIPOS>MOLECULE
QU9
   66    71     1     0     0
SMALL
abcg2


@<TRIPOS>ATOM
      1 N1         -27.0980     5.7140    26.2960 na         1 QU9      -0.170500
      2 N3         -19.6710     5.4970    27.4520 ns         1 QU9      -0.157000
      3 C4         -20.6580     6.5840    31.0250 c6         1 QU9       0.161600
      4 C5         -21.3970     6.6090    29.7070 c6         1 QU9      -0.113400
      5 C6         -21.4660     5.1930    29.0940 c6         1 QU9      -0.048700
      6 C7         -22.4740     5.1510    27.9130 c3         1 QU9      -0.146400
      7 C10        -25.6860     2.8620    25.9940 c5         1 QU9      -0.092400
      8 C13        -27.0130     5.3760    27.7090 c3         1 QU9       0.058600
      9 C15        -27.6950     5.7920    24.1900 cc         1 QU9       0.226900
     10 C17        -20.0570     4.8160    28.5660 c          1 QU9       0.594100
     11 C20        -16.0940     5.0940    25.3960 ca         1 QU9       0.345900
     12 C21        -16.6600     6.3890    25.4690 ca         1 QU9      -0.085000
     13 C22        -16.0510     7.5060    24.8520 ca         1 QU9      -0.077000
     14 C24        -17.8050     8.9220    25.7040 ca         1 QU9      -0.086000
     15 C26        -17.8690     6.5570    26.1980 ca         1 QU9      -0.031000
     16 C28        -22.3130     2.9290    29.8480 ca         1 QU9      -0.056000
     17 O2         -19.3450     3.9970    29.1260 o          1 QU9      -0.552100
     18 C18        -18.4410     5.3880    26.7780 ca         1 QU9      -0.077000
     19 C25        -18.4210     7.8560    26.3110 ca         1 QU9      -0.114000
     20 C23        -16.6160     8.7500    24.9630 ca         1 QU9      -0.110000
     21 N4         -16.6280     4.0350    25.9570 nb         1 QU9      -0.642000
     22 C19        -17.7940     4.1820    26.6340 ca         1 QU9       0.319900
     23 O          -21.3410     5.7550    31.9820 os         1 QU9      -0.340100
     24 C27        -21.8530     4.2020    30.1810 ca         1 QU9      -0.129300
     25 C3         -21.7880     4.5500    31.5340 ca         1 QU9       0.171100
     26 C2         -22.2170     3.6530    32.5160 ca         1 QU9      -0.132000
     27 C1         -22.6970     2.4020    32.1700 ca         1 QU9      -0.060000
     28 C          -22.7320     2.0480    30.8270 ca         1 QU9       0.088000
     29 CL         -23.3250     0.4640    30.3610 cl         1 QU9      -0.219000
     30 O1         -24.3500     5.7470    29.3060 o          1 QU9      -0.612100
     31 N          -24.7520     4.3130    27.6140 n          1 QU9      -0.418800
     32 C12        -26.1600     4.1340    28.0040 c5         1 QU9       0.092700
     33 C11        -26.5710     2.8670    27.2450 c5         1 QU9      -0.085400
     34 C9         -24.3630     3.4540    26.4800 c5         1 QU9       0.105000
     35 C16        -26.1600     6.3800    25.5720 cd         1 QU9       0.392400
     36 N2         -26.4870     6.4490    24.2950 nc         1 QU9      -0.681000
     37 C14        -28.0870     5.3330    25.4180 cd         1 QU9      -0.234000
     38 H1         -20.3020     6.1980    27.0970 hn         1 QU9       0.152000
     39 H2         -19.6370     6.2090    30.9070 h1         1 QU9       0.065200
     40 H3         -20.6170     7.5720    31.4770 h1         1 QU9       0.065200
     41 H4         -20.9020     7.3010    29.0240 hc         1 QU9       0.073700
     42 H5         -22.4150     6.9620    29.8650 hc         1 QU9       0.073700
     43 H6         -22.2370     4.3150    27.2610 hc         1 QU9       0.064200
     44 H7         -22.3680     6.0550    27.3060 hc         1 QU9       0.064200
     45 H8         -26.1160     3.4900    25.2140 hc         1 QU9       0.066200
     46 H9         -25.5480     1.8630    25.5830 hc         1 QU9       0.066200
     47 H10        -26.5970     6.2280    28.2420 h1         1 QU9       0.078200
     48 H11        -28.0240     5.2030    28.0750 h1         1 QU9       0.078200
     49 H12        -28.2110     5.6970    23.2480 h4         1 QU9       0.038100
     50 H14        -15.1330     7.3590    24.2960 ha         1 QU9       0.121000
     51 H15        -18.2330     9.9120    25.8000 ha         1 QU9       0.117000
     52 H16        -22.3460     2.6200    28.8130 ha         1 QU9       0.119000
     53 H17        -19.3200     8.0210    26.8890 ha         1 QU9       0.107000
     54 H18        -16.1500     9.6060    24.4910 ha         1 QU9       0.120000
     55 H19        -18.2150     3.2870    27.0670 h4         1 QU9       0.043100
     56 H20        -22.1690     3.9560    33.5540 ha         1 QU9       0.134000
     57 H21        -23.0310     1.7110    32.9320 ha         1 QU9       0.132000
     58 H22        -26.2070     3.9870    29.0840 h1         1 QU9       0.085700
     59 H23        -27.6350     2.8530    27.0150 hc         1 QU9       0.059200
     60 H24        -26.3490     1.9960    27.8630 hc         1 QU9       0.059200
     61 H25        -23.6850     2.6690    26.8200 h1         1 QU9       0.049700
     62 H26        -23.8630     4.0350    25.7070 h1         1 QU9       0.049700
     63 H27        -25.2730     6.7920    26.0260 h5         1 QU9       0.052100
     64 H28        -28.9520     4.7830    25.7470 h4         1 QU9       0.154000
     65 C8         -23.9320     5.0930    28.3460 c          1 QU9       0.605100
     66 H13        -15.1670     4.9560    24.8460 h4         1 QU9       0.023100
@<TRIPOS>BOND
     1     1     8 1   
     2     1    35 1   
     3     1    37 1   
     4     2    10 1   
     5     2    18 1   
     6     2    38 1   
     7     3     4 1   
     8     3    23 1   
     9     3    39 1   
    10     3    40 1   
    11     4     5 1   
    12     4    41 1   
    13     4    42 1   
    14     5     6 1   
    15     5    10 1   
    16     5    24 1   
    17     6    43 1   
    18     6    44 1   
    19     6    65 1   
    20     7    33 1   
    21     7    34 1   
    22     7    45 1   
    23     7    46 1   
    24     8    32 1   
    25     8    47 1   
    26     8    48 1   
    27     9    36 1   
    28     9    37 2   
    29     9    49 1   
    30    10    17 2   
    31    11    12 ar  
    32    11    21 ar  
    33    11    66 1   
    34    12    13 ar  
    35    12    15 ar  
    36    13    20 ar  
    37    13    50 1   
    38    14    19 ar  
    39    14    20 ar  
    40    14    51 1   
    41    15    18 ar  
    42    15    19 ar  
    43    16    24 ar  
    44    16    28 ar  
    45    16    52 1   
    46    18    22 ar  
    47    19    53 1   
    48    20    54 1   
    49    21    22 ar  
    50    22    55 1   
    51    23    25 1   
    52    24    25 ar  
    53    25    26 ar  
    54    26    27 ar  
    55    26    56 1   
    56    27    28 ar  
    57    27    57 1   
    58    28    29 1   
    59    30    65 2   
    60    31    32 1   
    61    31    34 1   
    62    31    65 1   
    63    32    33 1   
    64    32    58 1   
    65    33    59 1   
    66    33    60 1   
    67    34    61 1   
    68    34    62 1   
    69    35    36 2   
    70    35    63 1   
    71    37    64 1   
@<TRIPOS>SUBSTRUCTURE
     1 QU9         1 TEMP              0 ****  ****    0 ROOT
