@<TRIPOS>MOLECULE
QU9
   66    71     1     0     0
SMALL
No Charge or Current Charge


@<TRIPOS>ATOM
      1 N1         -27.7080     5.4350    26.3920 na         1 QU9      -0.170500
      2 N3         -19.2680     5.6510    27.5120 ns         1 QU9      -0.157000
      3 C4         -20.5070     6.8350    30.2390 c6         1 QU9       0.161600
      4 C5         -21.4220     6.7680    29.0000 c6         1 QU9      -0.113400
      5 C6         -21.5790     5.2910    28.4890 c6         1 QU9      -0.048700
      6 C7         -22.7880     5.2290    27.4680 c3         1 QU9      -0.146400
      7 C10        -26.2270     2.5170    26.3430 c5         1 QU9      -0.092400
      8 C13        -27.5150     5.1650    27.8270 c3         1 QU9       0.058600
      9 C15        -28.5320     5.5460    24.3720 cc         1 QU9       0.226900
     10 C17        -20.3060     4.7490    27.7290 c          1 QU9       0.594100
     11 C20        -15.4610     5.1510    25.8150 ca         1 QU9       0.345900
     12 C21        -15.9410     6.4590    26.0120 ca         1 QU9      -0.085000
     13 C22        -15.1540     7.5700    25.6500 ca         1 QU9      -0.077000
     14 C24        -16.9140     9.0650    26.4130 ca         1 QU9      -0.086000
     15 C26        -17.2210     6.6440    26.5790 ca         1 QU9      -0.031000
     16 C28        -22.3270     3.0460    29.5170 ca         1 QU9      -0.056000
     17 O2         -20.2490     3.5890    27.3370 o          1 QU9      -0.552100
     18 C18        -17.9760     5.4960    26.9240 ca         1 QU9      -0.077000
     19 C25        -17.7030     7.9590    26.7750 ca         1 QU9      -0.114000
     20 C23        -15.6420     8.8710    25.8510 ca         1 QU9      -0.110000
     21 N4         -16.1660     4.0480    26.1480 nb         1 QU9      -0.642000
     22 C19        -17.3940     4.2230    26.6910 ca         1 QU9       0.319900
     23 O          -21.0670     6.0480    31.3040 os         1 QU9      -0.340100
     24 C27        -21.8270     4.3560    29.7060 ca         1 QU9      -0.129300
     25 C3         -21.5650     4.7910    31.0330 ca         1 QU9       0.171100
     26 C2         -21.8390     3.9510    32.1250 ca         1 QU9      -0.132000
     27 C1         -22.3560     2.6610    31.9180 ca         1 QU9      -0.060000
     28 C          -22.5940     2.2110    30.6120 ca         1 QU9       0.088000
     29 Cl         -23.2390     0.5970    30.3420 cl         1 QU9      -0.219000
     30 O1         -24.5530     5.9390    28.9620 o          1 QU9      -0.612100
     31 N          -25.1560     4.2330    27.5770 n          1 QU9      -0.418800
     32 C12        -26.4880     4.0600    28.2140 c5         1 QU9       0.092700
     33 C11        -26.8700     2.6220    27.7490 c5         1 QU9      -0.085400
     34 C9         -24.8500     3.1830    26.5740 c5         1 QU9       0.105000
     35 C16        -26.8310     6.1170    25.5610 cd         1 QU9       0.392400
     36 N2         -27.3260     6.1870    24.3300 nc         1 QU9      -0.681000
     37 C14        -28.8030     5.0740    25.6260 cd         1 QU9      -0.234000
     38 H1         -19.4560     6.5890    27.8370 hn         1 QU9       0.152000
     39 H2         -19.5030     6.4530    30.0100 h1         1 QU9       0.065200
     40 H3         -20.4020     7.8730    30.5830 h1         1 QU9       0.065200
     41 H4         -21.0590     7.4390    28.2090 hc         1 QU9       0.073700
     42 H5         -22.3940     7.1810    29.2940 hc         1 QU9       0.073700
     43 H6         -22.6490     4.3940    26.7780 hc         1 QU9       0.064200
     44 H7         -22.7690     6.1140    26.8220 hc         1 QU9       0.064200
     45 H8         -26.8070     3.0490    25.5830 hc         1 QU9       0.066200
     46 H9         -26.1320     1.4800    26.0010 hc         1 QU9       0.066200
     47 H10        -27.1980     6.1020    28.3010 h1         1 QU9       0.078200
     48 H11        -28.4860     4.9020    28.2650 h1         1 QU9       0.078200
     49 H12        -29.1410     5.4660    23.4800 h4         1 QU9       0.038100
     50 H14        -14.1670     7.4260    25.2140 ha         1 QU9       0.121000
     51 H15        -17.2910    10.0740    26.5670 ha         1 QU9       0.117000
     52 H16        -22.5120     2.6650    28.5180 ha         1 QU9       0.119000
     53 H17        -18.6850     8.1440    27.2030 ha         1 QU9       0.107000
     54 H18        -15.0340     9.7290    25.5720 ha         1 QU9       0.120000
     55 H19        -17.9040     3.3020    26.9610 h4         1 QU9       0.043100
     56 H20        -21.6480     4.3030    33.1350 ha         1 QU9       0.134000
     57 H21        -22.5660     2.0130    32.7650 ha         1 QU9       0.132000
     58 H22        -26.4000     4.0730    29.3100 h1         1 QU9       0.085700
     59 H23        -27.9530     2.4540    27.7330 hc         1 QU9       0.059200
     60 H24        -26.4400     1.8740    28.4250 hc         1 QU9       0.059200
     61 H25        -24.1290     2.4600    26.9740 h1         1 QU9       0.049700
     62 H26        -24.4490     3.6010    25.6420 h1         1 QU9       0.049700
     63 H27        -25.8870     6.5180    25.9110 h5         1 QU9       0.052100
     64 H28        -29.6570     4.5270    26.0080 h4         1 QU9       0.154000
     65 C8         -24.2110     5.1570    28.0850 c          1 QU9       0.605100
     66 H13        -14.4770     4.9780    25.3800 h4         1 QU9       0.023100
@<TRIPOS>BOND
     1     1     8 1   
     2     1    35 1   
     3     1    37 1   
     4     2    10 1   
     5     2    18 1   
     6     2    38 1   
     7     3     4 1   
     8     3    23 1   
     9     3    39 1   
    10     3    40 1   
    11     4     5 1   
    12     4    41 1   
    13     4    42 1   
    14     5     6 1   
    15     5    10 1   
    16     5    24 1   
    17     6    43 1   
    18     6    44 1   
    19     6    65 1   
    20     7    33 1   
    21     7    34 1   
    22     7    45 1   
    23     7    46 1   
    24     8    32 1   
    25     8    47 1   
    26     8    48 1   
    27     9    36 1   
    28     9    37 2   
    29     9    49 1   
    30    10    17 2   
    31    11    12 ar  
    32    11    21 ar  
    33    11    66 1   
    34    12    13 ar  
    35    12    15 ar  
    36    13    20 ar  
    37    13    50 1   
    38    14    19 ar  
    39    14    20 ar  
    40    14    51 1   
    41    15    18 ar  
    42    15    19 ar  
    43    16    24 ar  
    44    16    28 ar  
    45    16    52 1   
    46    18    22 ar  
    47    19    53 1   
    48    20    54 1   
    49    21    22 ar  
    50    22    55 1   
    51    23    25 1   
    52    24    25 ar  
    53    25    26 ar  
    54    26    27 ar  
    55    26    56 1   
    56    27    28 ar  
    57    27    57 1   
    58    28    29 1   
    59    30    65 2   
    60    31    32 1   
    61    31    34 1   
    62    31    65 1   
    63    32    33 1   
    64    32    58 1   
    65    33    59 1   
    66    33    60 1   
    67    34    61 1   
    68    34    62 1   
    69    35    36 2   
    70    35    63 1   
    71    37    64 1   
@<TRIPOS>SUBSTRUCTURE
     1 QU9         1 TEMP              0 ****  ****    0 ROOT
