@<TRIPOS>MOLECULE
QUA
   29    30     1     0     0
SMALL
No Charge or Current Charge


@<TRIPOS>ATOM
      1 O12          4.9650    -0.4820    -0.3620 o          1 QUA      -0.698000
      2 C11          4.6120     0.1560    -1.3490 c          1 QUA       0.610500
      3 C2           3.1000     0.4660    -1.5450 ca         1 QUA       0.301500
      4 N1           2.6930     1.1700    -2.6440 nb         1 QUA      -0.614000
      5 C3           2.1610     0.0160    -0.5850 ca         1 QUA      -0.133000
      6 C9           1.3750     1.4270    -2.8020 ca         1 QUA       0.296300
      7 C4           0.7800     0.2860    -0.7300 ca         1 QUA      -0.106300
      8 C8           0.9700     2.1990    -4.0840 c6         1 QUA       0.124000
      9 C10          0.3850     1.0060    -1.8830 ca         1 QUA      -0.124800
     10 O16          0.6800     1.2940    -5.1700 oh         1 QUA      -0.653000
     11 C7          -0.2800     3.0800    -3.8230 c6         1 QUA      -0.077200
     12 C13         -0.2480    -0.1750     0.3190 c3         1 QUA       0.216600
     13 O15         -0.8650    -1.3850    -0.1230 oh         1 QUA      -0.672000
     14 C5          -1.0390     1.3520    -2.1800 ce         1 QUA      -0.136200
     15 C14          0.3130    -0.4020     1.7390 c3         1 QUA      -0.120100
     16 C6          -1.3580     2.2990    -3.0860 c2         1 QUA      -0.259200
     17 O1           5.4240     0.5550    -2.1800 o          1 QUA      -0.698000
     18 HC3          2.5260    -0.5420     0.2710 ha         1 QUA       0.142000
     19 HC8          1.8030     2.8620    -4.3640 h1         1 QUA       0.095700
     20 H16         -0.1160     0.7920    -4.8910 ho         1 QUA       0.435000
     21 HC71        -0.6710     3.4860    -4.7670 hc         1 QUA       0.049700
     22 HC72         0.0110     3.9460    -3.2120 hc         1 QUA       0.049700
     23 H13         -1.0070     0.6140     0.4170 h1         1 QUA       0.061700
     24 H15         -0.1360    -1.9830    -0.3930 ho         1 QUA       0.443000
     25 HC5         -1.8190     0.8010    -1.6500 ha         1 QUA       0.181000
     26 H141         0.8570     0.4850     2.0830 hc         1 QUA       0.041033
     27 H142         0.9880    -1.2650     1.7750 hc         1 QUA       0.041033
     28 H143        -0.5060    -0.5880     2.4440 hc         1 QUA       0.041033
     29 HC6         -2.3990     2.5470    -3.3080 ha         1 QUA       0.161000
@<TRIPOS>BOND
     1     1     2 1   
     2     2     3 1   
     3     2    17 1   
     4     3     4 ar  
     5     3     5 ar  
     6     4     6 ar  
     7     5     7 ar  
     8     5    18 1   
     9     6     8 1   
    10     6     9 ar  
    11     7     9 ar  
    12     7    12 1   
    13     8    10 1   
    14     8    11 1   
    15     8    19 1   
    16     9    14 1   
    17    10    20 1   
    18    11    16 1   
    19    11    21 1   
    20    11    22 1   
    21    12    13 1   
    22    12    15 1   
    23    12    23 1   
    24    13    24 1   
    25    14    16 2   
    26    14    25 1   
    27    15    26 1   
    28    15    27 1   
    29    15    28 1   
    30    16    29 1   
@<TRIPOS>SUBSTRUCTURE
     1 QUA         1 TEMP              0 ****  ****    0 ROOT
