@<TRIPOS>MOLECULE
QUA
   29    30     1     0     0
SMALL
abcg2


@<TRIPOS>ATOM
      1 O12          4.8840    -0.3440    -0.3100 o          1 QUA      -0.698000
      2 C11          4.5660     0.2990    -1.3300 c          1 QUA       0.610500
      3 C2           3.0690     0.5580    -1.5130 ca         1 QUA       0.301500
      4 N1           2.6710     1.2020    -2.6050 nb         1 QUA      -0.614000
      5 C3           2.1610     0.1230    -0.5520 ca         1 QUA      -0.133000
      6 C9           1.3790     1.4400    -2.7680 ca         1 QUA       0.296300
      7 C4           0.8040     0.3600    -0.7050 ca         1 QUA      -0.106300
      8 C8           0.9570     2.0920    -4.0670 c6         1 QUA       0.124000
      9 C10          0.3920     1.0450    -1.8570 ca         1 QUA      -0.124800
     10 O16          0.6870     1.0920    -5.0340 oh         1 QUA      -0.653000
     11 C7          -0.2350     3.0100    -3.8470 c6         1 QUA      -0.077200
     12 C13         -0.2180    -0.1150     0.3130 c3         1 QUA       0.216600
     13 O15         -1.0460    -1.1150    -0.2560 oh         1 QUA      -0.672000
     14 C5          -1.0000     1.4050    -2.1340 ce         1 QUA      -0.136200
     15 C14          0.3710    -0.5740     1.6360 c3         1 QUA      -0.120100
     16 C6          -1.3030     2.3290    -3.0500 c2         1 QUA      -0.259200
     17 O1           5.3230     0.7480    -2.2050 o          1 QUA      -0.698000
     18 HC3          2.5420    -0.3900     0.3180 ha         1 QUA       0.142000
     19 HC8          1.8000     2.6650    -4.4580 h1         1 QUA       0.095700
     20 H16         -0.1050     0.6160    -4.7620 ho         1 QUA       0.435000
     21 HC71        -0.6220     3.3540    -4.8080 hc         1 QUA       0.049700
     22 HC72         0.0950     3.9100    -3.3140 hc         1 QUA       0.049700
     23 H13         -0.8900     0.7230     0.5220 h1         1 QUA       0.061700
     24 H15         -0.4950    -1.8800    -0.4570 ho         1 QUA       0.443000
     25 HC5         -1.7910     0.9300    -1.5700 ha         1 QUA       0.181000
     26 H141         0.9700     0.2100     2.1010 hc         1 QUA       0.041033
     27 H142         1.0040    -1.4560     1.5190 hc         1 QUA       0.041033
     28 H143        -0.4340    -0.8310     2.3230 hc         1 QUA       0.041033
     29 HC6         -2.3370     2.6100    -3.2130 ha         1 QUA       0.161000
@<TRIPOS>BOND
     1     1     2 1   
     2     2     3 1   
     3     2    17 1   
     4     3     4 ar  
     5     3     5 ar  
     6     4     6 ar  
     7     5     7 ar  
     8     5    18 1   
     9     6     8 1   
    10     6     9 ar  
    11     7     9 ar  
    12     7    12 1   
    13     8    10 1   
    14     8    11 1   
    15     8    19 1   
    16     9    14 1   
    17    10    20 1   
    18    11    16 1   
    19    11    21 1   
    20    11    22 1   
    21    12    13 1   
    22    12    15 1   
    23    12    23 1   
    24    13    24 1   
    25    14    16 2   
    26    14    25 1   
    27    15    26 1   
    28    15    27 1   
    29    15    28 1   
    30    16    29 1   
@<TRIPOS>SUBSTRUCTURE
     1 QUA         1 TEMP              0 ****  ****    0 ROOT
