@<TRIPOS>MOLECULE
QUB
   28    29     1     0     0
SMALL
No Charge or Current Charge


@<TRIPOS>ATOM
      1 C5          -1.4540     0.2740    -0.1710 ca         1 QUB      -0.052000
      2 C6          -0.8150     1.5210    -0.3850 ca         1 QUB      -0.086000
      3 C7          -1.5360     2.7220    -0.2940 ca         1 QUB      -0.109000
      4 C8          -2.9050     2.6990     0.0000 ca         1 QUB      -0.101000
      5 C9          -3.5550     1.4700     0.1910 ca         1 QUB      -0.085000
      6 C4          -2.8540     0.2520     0.1030 ca         1 QUB       0.260000
      7 N1          -3.5420    -0.9000     0.2750 nb         1 QUB      -0.651000
      8 C3          -2.8790    -2.0700     0.1800 ca         1 QUB       0.346900
      9 C2          -1.5050    -2.1450    -0.0770 ca         1 QUB      -0.154000
     10 C1          -0.7540    -0.9660    -0.2540 ca         1 QUB      -0.077900
     11 C10          0.7270    -1.1150    -0.4430 ce         1 QUB       0.409800
     12 N2           1.5890    -0.3550     0.1620 n2         1 QUB      -0.321700
     13 O1           2.9330    -0.7170    -0.0690 os         1 QUB      -0.310000
     14 C11          3.8180     0.1740     0.6290 c3         1 QUB       0.198800
     15 C12          5.2350    -0.2720     0.3400 c2         1 QUB      -0.229200
     16 C13          6.0460     0.2490    -0.5970 c2         1 QUB      -0.295000
     17 H1           0.2370     1.5850    -0.6430 ha         1 QUB       0.139000
     18 H2          -1.0320     3.6720    -0.4590 ha         1 QUB       0.115000
     19 H3          -3.4650     3.6290     0.0700 ha         1 QUB       0.117000
     20 H4          -4.6200     1.4580     0.4060 ha         1 QUB       0.131000
     21 H5          -3.4670    -2.9760     0.3260 h4         1 QUB       0.021100
     22 H6          -1.0270    -3.1200    -0.1210 ha         1 QUB       0.123000
     23 H7           1.0500    -2.0360    -0.9340 h4         1 QUB       0.006800
     24 H10          3.6740     1.2100     0.2920 h1         1 QUB       0.045700
     25 H11          3.6320     0.1380     1.7120 h1         1 QUB       0.045700
     26 H12          5.5770    -1.0920     0.9760 ha         1 QUB       0.180000
     27 H14          5.7240     1.0670    -1.2450 ha         1 QUB       0.165500
     28 H15          7.0590    -0.1260    -0.7500 ha         1 QUB       0.165500
@<TRIPOS>BOND
     1     1     2 ar  
     2     1     6 ar  
     3     1    10 ar  
     4     2     3 ar  
     5     2    17 1   
     6     3     4 ar  
     7     3    18 1   
     8     4     5 ar  
     9     4    19 1   
    10     5     6 ar  
    11     5    20 1   
    12     6     7 ar  
    13     7     8 ar  
    14     8     9 ar  
    15     8    21 1   
    16     9    10 ar  
    17     9    22 1   
    18    10    11 1   
    19    11    12 2   
    20    11    23 1   
    21    12    13 1   
    22    13    14 1   
    23    14    15 1   
    24    14    24 1   
    25    14    25 1   
    26    15    16 2   
    27    15    26 1   
    28    16    27 1   
    29    16    28 1   
@<TRIPOS>SUBSTRUCTURE
     1 QUB         1 TEMP              0 ****  ****    0 ROOT
