@<TRIPOS>MOLECULE
QUB
   28    29     1     0     0
SMALL
bcc


@<TRIPOS>ATOM
      1 C5          -1.4110     0.2760     0.0030 ca         1 QUB      -0.117300
      2 C6          -0.7810     1.5410     0.0680 ca         1 QUB      -0.104000
      3 C7          -1.5220     2.6930     0.1190 ca         1 QUB      -0.127000
      4 C8          -2.9280     2.6470     0.1110 ca         1 QUB      -0.119000
      5 C9          -3.5680     1.4400     0.0490 ca         1 QUB      -0.168300
      6 C4          -2.8330     0.2350    -0.0070 ca         1 QUB       0.390600
      7 N1          -3.5440    -0.9180    -0.0710 nb         1 QUB      -0.651000
      8 C3          -2.8870    -2.0420    -0.1290 ca         1 QUB       0.412200
      9 C2          -1.4840    -2.1210    -0.1280 ca         1 QUB      -0.237300
     10 C1          -0.7240    -0.9770    -0.0600 ca         1 QUB      -0.077900
     11 C10          0.7240    -1.1840    -0.0630 ce         1 QUB       0.409800
     12 N2           1.5750    -0.2470     0.0360 n2         1 QUB      -0.420200
     13 O1           2.8490    -0.7060     0.0170 os         1 QUB      -0.188300
     14 C11          3.7720     0.3790     0.0990 c3         1 QUB       0.175600
     15 C12          5.1320    -0.2050     0.2770 c2         1 QUB      -0.179200
     16 C13          6.1470     0.0370    -0.5420 c2         1 QUB      -0.195000
     17 H1           0.2950     1.6010     0.0760 ha         1 QUB       0.157000
     18 H2          -1.0180     3.6490     0.1680 ha         1 QUB       0.133000
     19 H3          -3.4990     3.5650     0.1530 ha         1 QUB       0.135000
     20 H4          -4.6490     1.3780     0.0400 ha         1 QUB       0.149000
     21 H5          -3.4710    -2.9540    -0.1800 h4         1 QUB       0.021100
     22 H6          -1.0130    -3.0940    -0.1820 ha         1 QUB       0.141000
     23 H7           1.0470    -2.2210    -0.1530 h4         1 QUB       0.006800
     24 H10          3.7230     0.9930    -0.8060 h1         1 QUB       0.045700
     25 H11          3.5150     1.0120     0.9540 h1         1 QUB       0.045700
     26 H12          5.2790    -0.8320     1.1520 ha         1 QUB       0.130000
     27 H14          6.0340     0.6610    -1.4210 ha         1 QUB       0.115500
     28 H15          7.1310    -0.3730    -0.3600 ha         1 QUB       0.115500
@<TRIPOS>BOND
     1     1     2 ar  
     2     1     6 ar  
     3     1    10 ar  
     4     2     3 ar  
     5     2    17 1   
     6     3     4 ar  
     7     3    18 1   
     8     4     5 ar  
     9     4    19 1   
    10     5     6 ar  
    11     5    20 1   
    12     6     7 ar  
    13     7     8 ar  
    14     8     9 ar  
    15     8    21 1   
    16     9    10 ar  
    17     9    22 1   
    18    10    11 1   
    19    11    12 2   
    20    11    23 1   
    21    12    13 1   
    22    13    14 1   
    23    14    15 1   
    24    14    24 1   
    25    14    25 1   
    26    15    16 2   
    27    15    26 1   
    28    16    27 1   
    29    16    28 1   
@<TRIPOS>SUBSTRUCTURE
     1 QUB         1 TEMP              0 ****  ****    0 ROOT
