@<TRIPOS>MOLECULE
QUC
   38    40     1     0     0
SMALL
No Charge or Current Charge


@<TRIPOS>ATOM
      1 C18        -48.1110   -29.3260     3.3180 ca         1 QUC       0.011000
      2 C16        -50.0270   -29.0510     1.8500 ca         1 QUC       0.351500
      3 C17        -48.6650   -29.0780     2.0540 ca         1 QUC      -0.046800
      4 C14        -49.0220   -28.6710    -0.2020 cc         1 QUC      -0.034100
      5 C13        -48.0460   -28.8390     0.7680 cd         1 QUC      -0.352300
      6 C19        -49.0270   -29.5410     4.3630 ca         1 QUC       0.059000
      7 C01        -43.4720   -30.4310     0.3460 c3         1 QUC      -0.081100
      8 C02        -44.5050   -30.6150     1.4990 c6         1 QUC       0.246500
      9 C03        -44.3540   -32.0410     2.1250 c6         1 QUC      -0.207700
     10 C04        -43.2430   -32.0670     3.1920 c          1 QUC       0.713000
     11 C07        -45.7070   -32.5860     2.6530 c6         1 QUC      -0.057400
     12 C08        -46.7330   -32.6700     1.4900 c6         1 QUC      -0.106400
     13 C09        -46.5900   -31.5060     0.4680 c6         1 QUC       0.215800
     14 C21        -50.4150   -29.4930     4.0780 ca         1 QUC       0.357900
     15 N10        -45.9190   -30.3470     1.0980 n3         1 QUC      -0.772500
     16 N15        -50.2370   -28.8030     0.5070 na         1 QUC      -0.324400
     17 N22        -50.9240   -29.2510     2.8360 nb         1 QUC      -0.688000
     18 O05        -42.2730   -32.7830     2.9900 o          1 QUC      -0.727000
     19 O06        -43.3790   -31.3810     4.1930 o          1 QUC      -0.727000
     20 O12        -45.9860   -28.8040    -0.9650 o          1 QUC      -0.577000
     21 O23        -45.6940   -27.8380     1.4030 o          1 QUC      -0.577000
     22 S11        -46.2840   -28.8080     0.4720 sy         1 QUC       1.241200
     23 Cl2        -48.4490   -29.8700     5.9960 cl         1 QUC      -0.193000
     24 H181       -47.0380   -29.3600     3.4830 ha         1 QUC       0.173000
     25 H141       -48.9570   -28.4860    -1.2730 h4         1 QUC       0.230000
     26 H013       -43.4250   -29.3920     0.0030 hc         1 QUC       0.036700
     27 H011       -42.4630   -30.6990     0.6790 hc         1 QUC       0.036700
     28 H012       -43.7150   -31.0620    -0.5170 hc         1 QUC       0.036700
     29 H021       -44.2330   -29.8830     2.2760 h1         1 QUC       0.084700
     30 H031       -44.0360   -32.7290     1.3290 hc         1 QUC       0.044700
     31 H072       -45.5750   -33.5760     3.1100 hc         1 QUC       0.047200
     32 H071       -46.0920   -31.9240     3.4420 hc         1 QUC       0.047200
     33 H081       -46.6240   -33.6260     0.9600 hc         1 QUC       0.026700
     34 H082       -47.7480   -32.6660     1.9100 hc         1 QUC       0.026700
     35 H091       -46.0070   -31.8500    -0.4000 h1         1 QUC       0.052700
     36 H092       -47.5920   -31.2570     0.0910 h1         1 QUC       0.052700
     37 H211       -51.1440   -29.6560     4.8710 h4         1 QUC       0.026100
     38 H151       -51.1590   -28.7350     0.0970 hn         1 QUC       0.355000
@<TRIPOS>BOND
     1     1     3 ar  
     2     1     6 ar  
     3     1    24 1   
     4     2     3 ar  
     5     2    16 1   
     6     2    17 ar  
     7     3     5 1   
     8     4     5 2   
     9     4    16 1   
    10     4    25 1   
    11     5    22 1   
    12     6    14 ar  
    13     6    23 1   
    14     7     8 1   
    15     7    26 1   
    16     7    27 1   
    17     7    28 1   
    18     8     9 1   
    19     8    15 1   
    20     8    29 1   
    21     9    10 1   
    22     9    11 1   
    23     9    30 1   
    24    10    18 1   
    25    10    19 1   
    26    11    12 1   
    27    11    31 1   
    28    11    32 1   
    29    12    13 1   
    30    12    33 1   
    31    12    34 1   
    32    13    15 1   
    33    13    35 1   
    34    13    36 1   
    35    14    17 ar  
    36    14    37 1   
    37    15    22 1   
    38    16    38 1   
    39    20    22 2   
    40    21    22 2   
@<TRIPOS>SUBSTRUCTURE
     1 QUC         1 TEMP              0 ****  ****    0 ROOT
