@<TRIPOS>MOLECULE
QUC
   38    40     1     0     0
SMALL
abcg2


@<TRIPOS>ATOM
      1 C18        -47.4010   -28.7890     3.5950 ca         1 QUC       0.011000
      2 C16        -49.5240   -29.4450     2.6790 ca         1 QUC       0.351500
      3 C17        -48.1640   -29.0900     2.4690 ca         1 QUC      -0.046800
      4 C14        -49.1540   -29.5030     0.4740 cc         1 QUC      -0.034100
      5 C13        -47.9580   -29.1370     1.0490 cd         1 QUC      -0.352300
      6 C19        -48.0430   -28.8800     4.8170 ca         1 QUC       0.059000
      7 C01        -43.2990   -30.3650     1.0600 c3         1 QUC      -0.081100
      8 C02        -44.7640   -30.6210     1.3850 c6         1 QUC       0.246500
      9 C03        -45.0190   -32.0640     1.8410 c6         1 QUC      -0.207700
     10 C04        -44.5590   -32.3020     3.2990 c          1 QUC       0.713000
     11 C07        -46.5060   -32.4100     1.6910 c6         1 QUC      -0.057400
     12 C08        -46.9230   -32.4120     0.2110 c6         1 QUC      -0.106400
     13 C09        -46.0600   -31.4370    -0.6020 c6         1 QUC       0.215800
     14 C21        -49.3920   -29.2460     4.9160 ca         1 QUC       0.357900
     15 N10        -45.6110   -30.2920     0.2030 n3         1 QUC      -0.772500
     16 N15        -50.0890   -29.6890     1.4490 na         1 QUC      -0.324400
     17 N22        -50.1400   -29.5260     3.8500 nb         1 QUC      -0.688000
     18 O05        -44.0960   -33.4440     3.5510 o          1 QUC      -0.727000
     19 O06        -44.7110   -31.3660     4.1250 o          1 QUC      -0.727000
     20 O12        -46.8300   -28.6570    -1.2000 o          1 QUC      -0.577000
     21 O23        -45.6970   -27.9290     0.9060 o          1 QUC      -0.577000
     22 S11        -46.4670   -28.9120     0.1770 sy         1 QUC       1.241200
     23 CL2        -47.1640   -28.5320     6.2870 cl         1 QUC      -0.193000
     24 H181       -46.3630   -28.5010     3.5270 ha         1 QUC       0.173000
     25 H141       -49.3940   -29.6470    -0.5660 h4         1 QUC       0.230000
     26 H013       -43.1390   -29.3170     0.8040 hc         1 QUC       0.036700
     27 H011       -42.6750   -30.6120     1.9210 hc         1 QUC       0.036700
     28 H012       -42.9810   -30.9820     0.2170 hc         1 QUC       0.036700
     29 H021       -45.0660   -29.9760     2.2060 h1         1 QUC       0.084700
     30 H031       -44.4430   -32.7490     1.2130 hc         1 QUC       0.044700
     31 H072       -46.7130   -33.3810     2.1420 hc         1 QUC       0.047200
     32 H071       -47.0920   -31.6720     2.2450 hc         1 QUC       0.047200
     33 H081       -46.7990   -33.4100    -0.2150 hc         1 QUC       0.026700
     34 H082       -47.9780   -32.1540     0.1200 hc         1 QUC       0.026700
     35 H091       -45.1550   -31.9350    -0.9540 h1         1 QUC       0.052700
     36 H092       -46.5820   -31.0660    -1.4790 h1         1 QUC       0.052700
     37 H211       -49.8660   -29.3080     5.8870 h4         1 QUC       0.026100
     38 H151       -51.0530   -29.9420     1.2920 hn         1 QUC       0.355000
@<TRIPOS>BOND
     1     1     3 ar  
     2     1     6 ar  
     3     1    24 1   
     4     2     3 ar  
     5     2    16 1   
     6     2    17 ar  
     7     3     5 1   
     8     4     5 2   
     9     4    16 1   
    10     4    25 1   
    11     5    22 1   
    12     6    14 ar  
    13     6    23 1   
    14     7     8 1   
    15     7    26 1   
    16     7    27 1   
    17     7    28 1   
    18     8     9 1   
    19     8    15 1   
    20     8    29 1   
    21     9    10 1   
    22     9    11 1   
    23     9    30 1   
    24    10    18 1   
    25    10    19 1   
    26    11    12 1   
    27    11    31 1   
    28    11    32 1   
    29    12    13 1   
    30    12    33 1   
    31    12    34 1   
    32    13    15 1   
    33    13    35 1   
    34    13    36 1   
    35    14    17 ar  
    36    14    37 1   
    37    15    22 1   
    38    16    38 1   
    39    20    22 2   
    40    21    22 2   
@<TRIPOS>SUBSTRUCTURE
     1 QUC         1 TEMP              0 ****  ****    0 ROOT
