@<TRIPOS>MOLECULE
QUD
   72    76     1     0     0
SMALL
No Charge or Current Charge


@<TRIPOS>ATOM
      1 C1          -8.2250     1.8480    -0.5240 ca         1 QUD      -0.105000
      2 C2          -7.3870     0.7760    -0.8810 ca         1 QUD      -0.081500
      3 C3          -7.7470     2.8630     0.3240 ca         1 QUD      -0.081500
      4 C4          -1.9860     1.2100    -1.9060 ca         1 QUD      -0.102000
      5 C5          -6.0680     0.7220    -0.3960 ca         1 QUD      -0.133000
      6 C6          -6.4280     2.8090     0.8100 ca         1 QUD      -0.133000
      7 C7          -3.1100     1.6310    -1.1710 ca         1 QUD      -0.056000
      8 C8          -2.2020     0.5670     0.8190 ca         1 QUD      -0.105000
      9 C9          -1.0800     0.1430     0.0770 ca         1 QUD      -0.148000
     10 C10         -0.9630     0.4620    -1.2990 ca         1 QUD       0.383000
     11 C11         -5.5850     1.7470     0.4430 ca         1 QUD       0.081100
     12 C12         -3.2220     1.3000     0.1930 ca         1 QUD       0.146100
     13 C13          1.0510    -0.6300    -1.3970 ca         1 QUD       0.667000
     14 C14          4.1130     0.1890     0.3740 c          1 QUD       0.594100
     15 C15         -0.0620    -0.6040     0.6960 ca         1 QUD       0.078700
     16 C16          5.7590     4.1560    -0.7370 c6         1 QUD      -0.077400
     17 C17          0.5970    -6.3820     0.3900 c6         1 QUD      -0.078400
     18 C18          6.3620     3.4300     0.4920 c6         1 QUD      -0.074900
     19 C19          4.2260     3.9440    -0.8220 c6         1 QUD      -0.074900
     20 C20         -0.3970    -5.2890    -0.0650 c6         1 QUD      -0.073900
     21 C21          1.4310    -5.8960     1.5970 c6         1 QUD      -0.073900
     22 C22          6.0330     1.9160     0.4720 c6         1 QUD      -0.065900
     23 C23          3.8660     2.4380    -0.8620 c6         1 QUD      -0.065900
     24 C24          0.3360    -3.9650    -0.3920 c6         1 QUD      -0.075900
     25 C25          2.1690    -4.5720     1.2770 c6         1 QUD      -0.075900
     26 C26          4.5050     1.6780     0.3320 c6         1 QUD      -0.136700
     27 C27          1.1850    -3.4520     0.8150 c6         1 QUD      -0.074700
     28 C28          2.7880    -1.5530     1.6520 c3         1 QUD       0.085000
     29 C29          1.9290    -2.1080     0.4760 c3         1 QUD       0.029300
     30 N30          1.0160    -1.0550    -0.0660 na         1 QUD      -0.197200
     31 N31          0.1130     0.0860    -2.0210 nb         1 QUD      -0.734000
     32 N32          2.1190    -0.8400    -2.1920 nv         1 QUD      -0.592500
     33 O34          4.4610    -0.5970    -0.4950 o          1 QUD      -0.618100
     34 O35         -4.3030     1.7120     0.9410 os         1 QUD      -0.238200
     35 H1          -9.2450     1.8890    -0.8990 ha         1 QUD       0.131000
     36 H2          -7.7610    -0.0130    -1.5310 ha         1 QUD       0.128500
     37 H3          -8.3970     3.6890     0.6040 ha         1 QUD       0.128500
     38 H5          -5.4300    -0.1150    -0.6660 ha         1 QUD       0.127000
     39 H6          -6.0580     3.5920     1.4670 ha         1 QUD       0.127000
     40 H4          -1.9000     1.4680    -2.9580 ha         1 QUD       0.162000
     41 H7          -3.8840     2.2180    -1.6580 ha         1 QUD       0.158000
     42 H8          -2.2920     0.3260     1.8760 ha         1 QUD       0.153000
     43 H15         -0.1030    -0.8710     1.7530 h4         1 QUD       0.174000
     44 H321         2.0990    -0.3610    -3.0790 hn         1 QUD       0.371500
     45 H322         3.0230    -0.9390    -1.7430 hn         1 QUD       0.371500
     46 H26          4.0570     2.1190     1.2330 hc         1 QUD       0.057700
     47 H33          3.0870     0.5260     2.1050 hn         1 QUD       0.330500
     48 H162         6.2360     3.7870    -1.6560 hc         1 QUD       0.051700
     49 H181         7.4510     3.5730     0.5130 hc         1 QUD       0.048450
     50 H182         5.9720     3.8810     1.4150 hc         1 QUD       0.048450
     51 H191         3.7390     4.4180     0.0420 hc         1 QUD       0.048450
     52 H192         3.8280     4.4450    -1.7150 hc         1 QUD       0.048450
     53 H171         0.0510    -7.2970     0.6560 hc         1 QUD       0.055700
     54 H172         1.2650    -6.6470    -0.4420 hc         1 QUD       0.055700
     55 H201        -0.9520    -5.6350    -0.9480 hc         1 QUD       0.052200
     56 H202        -1.1430    -5.1140     0.7230 hc         1 QUD       0.052200
     57 H211         0.7750    -5.7520     2.4670 hc         1 QUD       0.052200
     58 H212         2.1590    -6.6680     1.8810 hc         1 QUD       0.052200
     59 H221         6.5600     1.4370    -0.3650 hc         1 QUD       0.047200
     60 H222         6.4070     1.4410     1.3900 hc         1 QUD       0.047200
     61 H231         2.7740     2.3160    -0.8470 hc         1 QUD       0.047200
     62 H232         4.2160     2.0020    -1.8080 hc         1 QUD       0.047200
     63 H241         0.9840    -4.1110    -1.2670 hc         1 QUD       0.046450
     64 H242        -0.4140    -3.2180    -0.6840 hc         1 QUD       0.046450
     65 H251         2.7170    -4.2590     2.1750 hc         1 QUD       0.046450
     66 H252         2.9230    -4.7520     0.4970 hc         1 QUD       0.046450
     67 H27          0.5010    -3.2370     1.6490 hc         1 QUD       0.053700
     68 H29          2.6430    -2.3820    -0.3090 h1         1 QUD       0.106700
     69 H281         2.1780    -1.5350     2.5650 h1         1 QUD       0.080200
     70 H282         3.6360    -2.2250     1.8350 h1         1 QUD       0.080200
     71 N33          3.3210    -0.1960     1.4320 ns         1 QUD      -0.523900
     72 H161         5.9830     5.2300    -0.6810 hc         1 QUD       0.051700
@<TRIPOS>BOND
     1     1     2 ar  
     2     1     3 ar  
     3     1    35 1   
     4     2     5 ar  
     5     2    36 1   
     6     3     6 ar  
     7     3    37 1   
     8     4     7 ar  
     9     4    10 ar  
    10     4    40 1   
    11     5    11 ar  
    12     5    38 1   
    13     6    11 ar  
    14     6    39 1   
    15     7    12 ar  
    16     7    41 1   
    17     8     9 ar  
    18     8    12 ar  
    19     8    42 1   
    20     9    10 ar  
    21     9    15 ar  
    22    10    31 ar  
    23    11    34 1   
    24    12    34 1   
    25    13    30 1   
    26    13    31 ar  
    27    13    32 1   
    28    14    26 1   
    29    14    33 2   
    30    14    71 1   
    31    15    30 2   
    32    15    43 1   
    33    16    18 1   
    34    16    19 1   
    35    16    48 1   
    36    16    72 1   
    37    17    20 1   
    38    17    21 1   
    39    17    53 1   
    40    17    54 1   
    41    18    22 1   
    42    18    49 1   
    43    18    50 1   
    44    19    23 1   
    45    19    51 1   
    46    19    52 1   
    47    20    24 1   
    48    20    55 1   
    49    20    56 1   
    50    21    25 1   
    51    21    57 1   
    52    21    58 1   
    53    22    26 1   
    54    22    59 1   
    55    22    60 1   
    56    23    26 1   
    57    23    61 1   
    58    23    62 1   
    59    24    27 1   
    60    24    63 1   
    61    24    64 1   
    62    25    27 1   
    63    25    65 1   
    64    25    66 1   
    65    26    46 1   
    66    27    29 1   
    67    27    67 1   
    68    28    29 1   
    69    28    69 1   
    70    28    70 1   
    71    28    71 1   
    72    29    30 1   
    73    29    68 1   
    74    32    44 1   
    75    32    45 1   
    76    47    71 1   
@<TRIPOS>SUBSTRUCTURE
     1 QUD         1 TEMP              0 ****  ****    0 ROOT
