@<TRIPOS>MOLECULE
QUD
   72    76     1     0     0
SMALL
abcg2


@<TRIPOS>ATOM
      1 C1          -8.0370     2.1070    -0.5000 ca         1 QUD      -0.105000
      2 C2          -7.2490     1.0320    -0.8890 ca         1 QUD      -0.081500
      3 C3          -7.5400     3.0260     0.4140 ca         1 QUD      -0.081500
      4 C4          -1.8870     1.4870    -1.6830 ca         1 QUD      -0.102000
      5 C5          -5.9710     0.8690    -0.3730 ca         1 QUD      -0.133000
      6 C6          -6.2600     2.8830     0.9300 ca         1 QUD      -0.133000
      7 C7          -2.9810     1.8230    -0.9400 ca         1 QUD      -0.056000
      8 C8          -2.3090     0.3860     0.8850 ca         1 QUD      -0.105000
      9 C9          -1.1640     0.0410     0.1290 ca         1 QUD      -0.148000
     10 C10         -0.9350     0.5840    -1.1600 ca         1 QUD       0.383000
     11 C11         -5.4850     1.8030     0.5330 ca         1 QUD       0.081100
     12 C12         -3.1960     1.2720     0.3540 ca         1 QUD       0.146100
     13 C13          1.0500    -0.5470    -1.3660 ca         1 QUD       0.667000
     14 C14          3.9450     0.2190     0.5910 c          1 QUD       0.594100
     15 C15         -0.2070    -0.8430     0.5870 ca         1 QUD       0.078700
     16 C16          5.6220     3.9030    -0.9550 c6         1 QUD      -0.077400
     17 C17          0.9770    -6.3920     0.3140 c6         1 QUD      -0.078400
     18 C18          6.0830     3.4270     0.4180 c6         1 QUD      -0.074900
     19 C19          4.1330     3.6410    -1.1540 c6         1 QUD      -0.074900
     20 C20         -0.0590    -5.4340    -0.2610 c6         1 QUD      -0.073900
     21 C21          1.5910    -5.8140     1.5820 c6         1 QUD      -0.073900
     22 C22          5.7540     1.9540     0.6380 c6         1 QUD      -0.065900
     23 C23          3.7930     2.1710    -0.9350 c6         1 QUD      -0.065900
     24 C24          0.5410    -4.0540    -0.5150 c6         1 QUD      -0.075900
     25 C25          2.1990    -4.4360     1.3380 c6         1 QUD      -0.075900
     26 C26          4.2590     1.6900     0.4460 c6         1 QUD      -0.136700
     27 C27          1.1700    -3.4630     0.7500 c6         1 QUD      -0.074700
     28 C28          2.5150    -1.4550     1.6550 c3         1 QUD       0.085000
     29 C29          1.8380    -2.1170     0.4470 c3         1 QUD       0.029300
     30 N30          0.8630    -1.1560    -0.1370 na         1 QUD      -0.197200
     31 N31          0.1640     0.2800    -1.8580 nb         1 QUD      -0.734000
     32 N32          2.1340    -0.8400    -2.0920 nv         1 QUD      -0.592500
     33 O34          4.5490    -0.6470    -0.0350 o          1 QUD      -0.618100
     34 O35         -4.2480     1.6740     1.1120 os         1 QUD      -0.238200
     35 H1          -9.0340     2.2250    -0.9030 ha         1 QUD       0.131000
     36 H2          -7.6310     0.3060    -1.5940 ha         1 QUD       0.128500
     37 H3          -8.1470     3.8660     0.7270 ha         1 QUD       0.128500
     38 H5          -5.3720     0.0170    -0.6710 ha         1 QUD       0.127000
     39 H6          -5.8640     3.6010     1.6380 ha         1 QUD       0.127000
     40 H4          -1.7260     1.9190    -2.6600 ha         1 QUD       0.162000
     41 H7          -3.6910     2.5360    -1.3400 ha         1 QUD       0.158000
     42 H8          -2.4630    -0.0420     1.8670 ha         1 QUD       0.153000
     43 H15         -0.3050    -1.3160     1.5540 h4         1 QUD       0.174000
     44 H321         2.2300    -0.3180    -2.9480 hn         1 QUD       0.371500
     45 H322         3.0070    -1.1280    -1.6770 hn         1 QUD       0.371500
     46 H26          3.7080     2.2550     1.2070 hc         1 QUD       0.057700
     47 H33          2.4760     0.6390     1.9340 hn         1 QUD       0.330500
     48 H162         6.1890     3.3770    -1.7310 hc         1 QUD       0.051700
     49 H181         7.1580     3.5830     0.5330 hc         1 QUD       0.048450
     50 H182         5.5980     4.0290     1.1940 hc         1 QUD       0.048450
     51 H191         3.5580     4.2550    -0.4530 hc         1 QUD       0.048450
     52 H192         3.8220     3.9420    -2.1570 hc         1 QUD       0.048450
     53 H171         0.5230    -7.3640     0.5200 hc         1 QUD       0.055700
     54 H172         1.7660    -6.5620    -0.4270 hc         1 QUD       0.055700
     55 H201        -0.4710    -5.8270    -1.1920 hc         1 QUD       0.052200
     56 H202        -0.8980    -5.3420     0.4370 hc         1 QUD       0.052200
     57 H211         0.8200    -5.7310     2.3550 hc         1 QUD       0.052200
     58 H212         2.3590    -6.4810     1.9790 hc         1 QUD       0.052200
     59 H221         6.3210     1.3440    -0.0700 hc         1 QUD       0.047200
     60 H222         6.0630     1.6450     1.6400 hc         1 QUD       0.047200
     61 H231         2.7140     2.0220    -1.0380 hc         1 QUD       0.047200
     62 H232         4.2740     1.5660    -1.7100 hc         1 QUD       0.047200
     63 H241         1.3110    -4.1350    -1.2900 hc         1 QUD       0.046450
     64 H242        -0.2370    -3.3970    -0.9110 hc         1 QUD       0.046450
     65 H251         2.5980    -4.0560     2.2800 hc         1 QUD       0.046450
     66 H252         3.0450    -4.5230     0.6470 hc         1 QUD       0.046450
     67 H27          0.3850    -3.3200     1.5040 hc         1 QUD       0.053700
     68 H29          2.5900    -2.3060    -0.3130 h1         1 QUD       0.106700
     69 H281         1.8410    -1.4470     2.5140 h1         1 QUD       0.080200
     70 H282         3.3760    -2.0600     1.9360 h1         1 QUD       0.080200
     71 N33          2.9240    -0.0940     1.4090 ns         1 QUD      -0.523900
     72 H161         5.8370     4.9660    -1.0800 hc         1 QUD       0.051700
@<TRIPOS>BOND
     1     1     2 ar  
     2     1     3 ar  
     3     1    35 1   
     4     2     5 ar  
     5     2    36 1   
     6     3     6 ar  
     7     3    37 1   
     8     4     7 ar  
     9     4    10 ar  
    10     4    40 1   
    11     5    11 ar  
    12     5    38 1   
    13     6    11 ar  
    14     6    39 1   
    15     7    12 ar  
    16     7    41 1   
    17     8     9 ar  
    18     8    12 ar  
    19     8    42 1   
    20     9    10 ar  
    21     9    15 ar  
    22    10    31 ar  
    23    11    34 1   
    24    12    34 1   
    25    13    30 1   
    26    13    31 ar  
    27    13    32 1   
    28    14    26 1   
    29    14    33 2   
    30    14    71 1   
    31    15    30 2   
    32    15    43 1   
    33    16    18 1   
    34    16    19 1   
    35    16    48 1   
    36    16    72 1   
    37    17    20 1   
    38    17    21 1   
    39    17    53 1   
    40    17    54 1   
    41    18    22 1   
    42    18    49 1   
    43    18    50 1   
    44    19    23 1   
    45    19    51 1   
    46    19    52 1   
    47    20    24 1   
    48    20    55 1   
    49    20    56 1   
    50    21    25 1   
    51    21    57 1   
    52    21    58 1   
    53    22    26 1   
    54    22    59 1   
    55    22    60 1   
    56    23    26 1   
    57    23    61 1   
    58    23    62 1   
    59    24    27 1   
    60    24    63 1   
    61    24    64 1   
    62    25    27 1   
    63    25    65 1   
    64    25    66 1   
    65    26    46 1   
    66    27    29 1   
    67    27    67 1   
    68    28    29 1   
    69    28    69 1   
    70    28    70 1   
    71    28    71 1   
    72    29    30 1   
    73    29    68 1   
    74    32    44 1   
    75    32    45 1   
    76    47    71 1   
@<TRIPOS>SUBSTRUCTURE
     1 QUD         1 TEMP              0 ****  ****    0 ROOT
