@<TRIPOS>MOLECULE
QUE
   32    34     1     0     0
SMALL
bcc


@<TRIPOS>ATOM
      1 C1           0.6950     0.0770     4.3590 ca         1 QUE      -0.326000
      2 C2          -0.5430     0.1210     3.7510 ca         1 QUE       0.270100
      3 C3          -0.6570     0.0680     2.3380 ca         1 QUE      -0.305600
      4 C4           0.5340    -0.0350     1.6080 ca         1 QUE       0.250100
      5 C5           1.7870    -0.0790     2.2030 ca         1 QUE      -0.321000
      6 C6           1.8560    -0.0230     3.5850 ca         1 QUE       0.251100
      7 C9          -1.9110     0.1220     1.6210 c          1 QUE       0.576900
      8 C10         -1.8080     0.0510     0.1660 cc         1 QUE      -0.061100
      9 C11         -0.6160    -0.0690    -0.4580 cd         1 QUE       0.126900
     10 C14         -0.3670    -0.1370    -1.8970 ca         1 QUE      -0.047800
     11 C15         -1.2720    -0.7370    -2.7690 ca         1 QUE      -0.077000
     12 C16         -1.0040    -0.7960    -4.1280 ca         1 QUE      -0.151000
     13 C17          0.1620    -0.2580    -4.6480 ca         1 QUE       0.140100
     14 C18          1.0810     0.3450    -3.7750 ca         1 QUE       0.034100
     15 C19          0.8190     0.3960    -2.4200 ca         1 QUE      -0.148000
     16 O12          0.5250    -0.1050     0.2700 os         1 QUE      -0.210200
     17 O13         -3.0320     0.2340     2.1140 o          1 QUE      -0.546100
     18 O23          2.1950     0.8510    -4.3470 oh         1 QUE      -0.519100
     19 O24          0.3850    -0.3310    -5.9720 oh         1 QUE      -0.491100
     20 O27         -2.9660     0.1330    -0.5070 oh         1 QUE      -0.479100
     21 O29          3.0170    -0.0620     4.2450 oh         1 QUE      -0.480100
     22 O30         -1.6650     0.2150     4.4660 oh         1 QUE      -0.448100
     23 H1           0.7770     0.1170     5.4390 ha         1 QUE       0.156000
     24 H5           2.6760    -0.1590     1.5910 ha         1 QUE       0.156000
     25 H15         -2.1830    -1.1850    -2.4020 ha         1 QUE       0.155000
     26 H16         -1.7090    -1.2730    -4.7970 ha         1 QUE       0.153000
     27 H19          1.5440     0.8720    -1.7700 ha         1 QUE       0.139000
     28 HO3          2.7710     1.2520    -3.6870 ho         1 QUE       0.436000
     29 HO4          1.2280     0.0780    -6.2010 ho         1 QUE       0.445000
     30 HO7         -3.6640     0.2350     0.1620 ho         1 QUE       0.452000
     31 HO9          3.7590    -0.1310     3.6330 ho         1 QUE       0.437000
     32 HO0         -1.4570     0.2310     5.4080 ho         1 QUE       0.434000
@<TRIPOS>BOND
     1     1     2 ar  
     2     1     6 ar  
     3     1    23 1   
     4     2     3 ar  
     5     2    22 1   
     6     3     4 ar  
     7     3     7 1   
     8     4     5 ar  
     9     4    16 1   
    10     5     6 ar  
    11     5    24 1   
    12     6    21 1   
    13     7     8 1   
    14     7    17 2   
    15     8     9 2   
    16     8    20 1   
    17     9    10 1   
    18     9    16 1   
    19    10    11 ar  
    20    10    15 ar  
    21    11    12 ar  
    22    11    25 1   
    23    12    13 ar  
    24    12    26 1   
    25    13    14 ar  
    26    13    19 1   
    27    14    15 ar  
    28    14    18 1   
    29    15    27 1   
    30    18    28 1   
    31    19    29 1   
    32    20    30 1   
    33    21    31 1   
    34    22    32 1   
@<TRIPOS>SUBSTRUCTURE
     1 QUE         1 TEMP              0 ****  ****    0 ROOT
