@<TRIPOS>MOLECULE
QUE
   32    34     1     0     0
SMALL
No Charge or Current Charge


@<TRIPOS>ATOM
      1 C1           0.7210     0.1100     4.4030 ca         1 QUE      -0.308000
      2 C2          -0.5430     0.0440     3.8030 ca         1 QUE       0.270100
      3 C3          -0.6630     0.0360     2.3950 ca         1 QUE      -0.305600
      4 C4           0.5040     0.0950     1.6220 ca         1 QUE       0.250100
      5 C5           1.7650     0.1620     2.2270 ca         1 QUE      -0.303000
      6 C6           1.8700     0.1690     3.6170 ca         1 QUE       0.251100
      7 C9          -1.9740    -0.0320     1.6710 c          1 QUE       0.576900
      8 C10         -1.9030    -0.0640     0.1810 cc         1 QUE      -0.061100
      9 C11         -0.6890     0.0020    -0.4960 cd         1 QUE       0.126900
     10 C14         -0.4160    -0.0720    -1.9670 ca         1 QUE      -0.047800
     11 C15         -1.4170    -0.3990    -2.9170 ca         1 QUE      -0.059000
     12 C16         -1.1260    -0.4600    -4.2920 ca         1 QUE      -0.133000
     13 C17          0.1700    -0.2000    -4.7480 ca         1 QUE       0.140100
     14 C18          1.1850     0.1210    -3.8310 ca         1 QUE       0.034100
     15 C19          0.8950     0.1810    -2.4560 ca         1 QUE      -0.130000
     16 O12          0.4570     0.0950     0.2520 os         1 QUE      -0.210200
     17 O13         -3.0600    -0.0640     2.2410 o          1 QUE      -0.546100
     18 O23          2.4560     0.3740    -4.2800 oh         1 QUE      -0.558100
     19 O24          0.4580    -0.2580    -6.0790 oh         1 QUE      -0.530100
     20 O27         -3.1330    -0.1250    -0.4060 oh         1 QUE      -0.518100
     21 O29          3.0880     0.2330     4.2120 oh         1 QUE      -0.519100
     22 O30         -1.6280    -0.0140     4.6200 oh         1 QUE      -0.487100
     23 H1           0.8210     0.1160     5.4850 ha         1 QUE       0.138000
     24 H5           2.6530     0.2080     1.6030 ha         1 QUE       0.138000
     25 H15         -2.4320    -0.6300    -2.6170 ha         1 QUE       0.137000
     26 H16         -1.9090    -0.7160    -5.0020 ha         1 QUE       0.135000
     27 H19          1.6980     0.4390    -1.7710 ha         1 QUE       0.121000
     28 HO3          3.0340     0.5790    -3.5120 ho         1 QUE       0.475000
     29 HO4          1.4160    -0.0430    -6.1530 ho         1 QUE       0.484000
     30 HO7         -3.7950    -0.1400     0.3270 ho         1 QUE       0.491000
     31 HO9          3.7660     0.2670     3.5060 ho         1 QUE       0.476000
     32 HO0         -1.3110     0.0040     5.5450 ho         1 QUE       0.473000
@<TRIPOS>BOND
     1     1     2 ar  
     2     1     6 ar  
     3     1    23 1   
     4     2     3 ar  
     5     2    22 1   
     6     3     4 ar  
     7     3     7 1   
     8     4     5 ar  
     9     4    16 1   
    10     5     6 ar  
    11     5    24 1   
    12     6    21 1   
    13     7     8 1   
    14     7    17 2   
    15     8     9 2   
    16     8    20 1   
    17     9    10 1   
    18     9    16 1   
    19    10    11 ar  
    20    10    15 ar  
    21    11    12 ar  
    22    11    25 1   
    23    12    13 ar  
    24    12    26 1   
    25    13    14 ar  
    26    13    19 1   
    27    14    15 ar  
    28    14    18 1   
    29    15    27 1   
    30    18    28 1   
    31    19    29 1   
    32    20    30 1   
    33    21    31 1   
    34    22    32 1   
@<TRIPOS>SUBSTRUCTURE
     1 QUE         1 TEMP              0 ****  ****    0 ROOT
