@<TRIPOS>MOLECULE
QUF
   60    64     1     0     0
SMALL
abcg2


@<TRIPOS>ATOM
      1 N1          19.1880    13.1580    24.6610 nc         1 QUF      -0.514100
      2 N3          26.2840     7.7760    19.7200 ns         1 QUF      -0.148000
      3 C4          21.5090    10.9980    22.8340 ca         1 QUF       0.463900
      4 C5          23.3200     9.3170    23.1660 ca         1 QUF       0.295000
      5 C6          24.0660     9.5210    22.0100 ca         1 QUF      -0.055000
      6 C7          25.0190     8.5890    21.6070 ca         1 QUF      -0.140600
      7 C8          25.7880     8.8810    20.3600 c          1 QUF       0.623700
      8 C10         27.7670     8.8250    18.0600 ca         1 QUF      -0.081000
      9 C13         28.8830     7.4050    16.4390 ca         1 QUF      -0.047000
     10 C17         25.2550     7.4620    22.3960 ca         1 QUF      -0.101000
     11 C21         20.6980    11.6750    20.7710 cp         1 QUF       0.274500
     12 C22         20.8130    11.5300    19.3010 cp         1 QUF      -0.209500
     13 C24         20.0820    12.0010    17.0660 ca         1 QUF      -0.181000
     14 C26         21.8240    10.7480    18.7330 ca         1 QUF       0.382900
     15 N           18.9380    13.3510    23.3350 na         1 QUF      -0.030100
     16 C           17.9010    14.2580    22.8850 c3         1 QUF       0.086900
     17 O           25.9520    10.0250    19.9500 o          1 QUF      -0.563100
     18 C1          20.1680    12.2720    24.7440 cd         1 QUF       0.387800
     19 C11         28.6310     8.6530    16.9810 ca         1 QUF      -0.165800
     20 C12         29.3180     9.8720    16.4330 c3         1 QUF       0.346300
     21 C14         28.2490     6.3010    17.0060 ca         1 QUF      -0.165800
     22 C16         27.3900     6.4440    18.0780 ca         1 QUF      -0.081000
     23 C18         24.5350     7.2830    23.5670 ca         1 QUF      -0.096000
     24 C19         23.5560     8.1870    23.9730 ca         1 QUF      -0.090300
     25 C2          19.7540    12.5900    22.5720 ca         1 QUF       0.165500
     26 C23         19.9270    12.1690    18.4320 ca         1 QUF      -0.029000
     27 C25         21.1210    11.2010    16.6040 ca         1 QUF       0.352900
     28 C3          20.5780    11.8670    23.4510 ca         1 QUF      -0.389900
     29 C9          27.1390     7.7130    18.6180 ca         1 QUF      -0.016000
     30 F           28.4400    10.8530    16.1260 f          1 QUF      -0.108833
     31 F1          30.1810    10.4040    17.3330 f          1 QUF      -0.108833
     32 F2          30.0290     9.6160    15.3190 f          1 QUF      -0.108833
     33 F3          29.8460     4.6370    16.4810 f          1 QUF      -0.108833
     34 F4          27.8720     3.9550    17.0650 f          1 QUF      -0.108833
     35 F5          28.1770     4.8690    15.1220 f          1 QUF      -0.108833
     36 N2          22.3440    10.2380    23.5890 nu         1 QUF      -0.937900
     37 N4          21.5400    10.9220    21.5070 nb         1 QUF      -0.293000
     38 N5          21.9820    10.5830    17.4180 nb         1 QUF      -0.674000
     39 N6          19.7860    12.5270    21.2330 nb         1 QUF      -0.222000
     40 H6          25.9710     6.8830    20.0680 hn         1 QUF       0.159000
     41 H5          23.9050    10.4020    21.4120 ha         1 QUF       0.162000
     42 H7          27.5840     9.8060    18.4650 ha         1 QUF       0.151500
     43 H8          29.5550     7.2860    15.6020 ha         1 QUF       0.149000
     44 H10         26.0150     6.7390    22.1310 ha         1 QUF       0.116000
     45 H12         22.9680     8.7340    25.9770 hc         1 QUF       0.048700
     46 H13         21.7000     7.9520    25.0390 hc         1 QUF       0.048700
     47 H14         23.0470     6.9980    25.6790 hc         1 QUF       0.048700
     48 H16         19.4100    12.4800    16.3650 ha         1 QUF       0.126000
     49 H18         22.5300    10.2390    19.3760 h4         1 QUF       0.039100
     50 H1          17.4620    14.7210    23.7650 h1         1 QUF       0.060367
     51 H           18.3270    15.0270    22.2400 h1         1 QUF       0.060367
     52 H2          17.1340    13.7130    22.3360 h1         1 QUF       0.060367
     53 H3          20.5380    11.9630    25.7090 h4         1 QUF       0.047800
     54 H9          26.9080     5.5770    18.5100 ha         1 QUF       0.151500
     55 H11         24.7300     6.4160    24.1860 ha         1 QUF       0.120000
     56 H15         19.1310    12.7820    18.8310 ha         1 QUF       0.138000
     57 H17         21.2670    11.0510    15.5400 h4         1 QUF       0.021100
     58 H4          22.1690    10.2700    24.5810 hn         1 QUF       0.505000
     59 C20         22.7750     7.9540    25.2340 c3         1 QUF      -0.054800
     60 C15         28.5280     4.9420    16.4270 c3         1 QUF       0.346300
@<TRIPOS>BOND
     1     1    15 1   
     2     1    18 2   
     3     2     7 1   
     4     2    29 1   
     5     2    40 1   
     6     3    28 ar  
     7     3    36 1   
     8     3    37 ar  
     9     4     5 ar  
    10     4    24 ar  
    11     4    36 1   
    12     5     6 ar  
    13     5    41 1   
    14     6     7 1   
    15     6    10 ar  
    16     7    17 2   
    17     8    19 ar  
    18     8    29 ar  
    19     8    42 1   
    20     9    19 ar  
    21     9    21 ar  
    22     9    43 1   
    23    10    23 ar  
    24    10    44 1   
    25    11    12 1   
    26    11    37 ar  
    27    11    39 ar  
    28    12    14 ar  
    29    12    26 ar  
    30    13    26 ar  
    31    13    27 ar  
    32    13    48 1   
    33    14    38 ar  
    34    14    49 1   
    35    15    16 1   
    36    15    25 1   
    37    16    50 1   
    38    16    51 1   
    39    16    52 1   
    40    18    28 1   
    41    18    53 1   
    42    19    20 1   
    43    20    30 1   
    44    20    31 1   
    45    20    32 1   
    46    21    22 ar  
    47    21    60 1   
    48    22    29 ar  
    49    22    54 1   
    50    23    24 ar  
    51    23    55 1   
    52    24    59 1   
    53    25    28 ar  
    54    25    39 ar  
    55    26    56 1   
    56    27    38 ar  
    57    27    57 1   
    58    33    60 1   
    59    34    60 1   
    60    35    60 1   
    61    36    58 1   
    62    45    59 1   
    63    46    59 1   
    64    47    59 1   
@<TRIPOS>SUBSTRUCTURE
     1 QUF         1 TEMP              0 ****  ****    0 ROOT
