@<TRIPOS>MOLECULE
QUF
   60    64     1     0     0
SMALL
No Charge or Current Charge


@<TRIPOS>ATOM
      1 N1          19.6430    13.2590    25.0010 nc         1 QUF      -0.514100
      2 N3          26.5400     7.6900    19.7340 ns         1 QUF      -0.148000
      3 C4          21.3410    10.9890    22.7080 ca         1 QUF       0.463900
      4 C5          23.0810     9.1170    22.9460 ca         1 QUF       0.295000
      5 C6          23.8560     9.3280    21.7870 ca         1 QUF      -0.055000
      6 C7          24.8170     8.3850    21.3540 ca         1 QUF      -0.140600
      7 C8          25.6160     8.6650    20.0930 c          1 QUF       0.623700
      8 C10         27.7750     8.6760    17.7990 ca         1 QUF      -0.081000
      9 C13         29.3710     7.2850    16.5960 ca         1 QUF      -0.047000
     10 C17         24.9980     7.2130    22.1250 ca         1 QUF      -0.101000
     11 C21         20.4410    11.8380    20.7550 cp         1 QUF       0.274500
     12 C22         20.3540    11.7840    19.2560 cp         1 QUF      -0.209500
     13 C24         19.4910    12.5690    17.1180 ca         1 QUF      -0.181000
     14 C26         21.0990    10.8340    18.5080 ca         1 QUF       0.382900
     15 N           19.2290    13.6080    23.7120 na         1 QUF      -0.030100
     16 C           18.2870    14.7010    23.4230 c3         1 QUF       0.086900
     17 O           25.4320     9.6880    19.4430 o          1 QUF      -0.563100
     18 C1          20.4840    12.2320    24.8070 cd         1 QUF       0.387800
     19 C11         28.7170     8.5240    16.7580 ca         1 QUF      -0.165800
     20 C12         29.0480     9.7060    15.8380 c3         1 QUF       0.346300
     21 C14         29.0800     6.1990    17.4470 ca         1 QUF      -0.165800
     22 C16         28.1350     6.3720    18.4810 ca         1 QUF      -0.081000
     23 C18         24.2450     7.0030    23.2900 ca         1 QUF      -0.096000
     24 C19         23.2880     7.9460    23.7120 ca         1 QUF      -0.090300
     25 C2          19.8070    12.8100    22.7390 ca         1 QUF       0.165500
     26 C23         19.5280    12.6730    18.5170 ca         1 QUF      -0.029000
     27 C25         20.2680    11.5920    16.4810 ca         1 QUF       0.352900
     28 C3          20.6020    11.9320    23.4050 ca         1 QUF      -0.389900
     29 C9          27.4730     7.6000    18.6620 ca         1 QUF      -0.016000
     30 F           27.9740    10.4990    15.6150 f          1 QUF      -0.108833
     31 F1          30.0120    10.4890    16.3720 f          1 QUF      -0.108833
     32 F2          29.4900     9.3100    14.6220 f          1 QUF      -0.108833
     33 F3          30.9730     4.8380    17.9500 f          1 QUF      -0.108833
     34 F4          29.0730     3.8100    17.7050 f          1 QUF      -0.108833
     35 F5          30.1020     4.6070    15.9710 f          1 QUF      -0.108833
     36 N2          22.1340    10.0650    23.3680 nu         1 QUF      -0.937900
     37 N4          21.2480    10.9380    21.3690 nb         1 QUF      -0.293000
     38 N5          21.0620    10.7340    17.1580 nb         1 QUF      -0.674000
     39 N6          19.7100    12.7830    21.3970 nb         1 QUF      -0.222000
     40 H6          26.5570     6.8920    20.3530 hn         1 QUF       0.159000
     41 H5          23.7230    10.2470    21.2260 ha         1 QUF       0.162000
     42 H7          27.2990     9.6420    17.9320 ha         1 QUF       0.151500
     43 H8          30.1160     7.1660    15.8110 ha         1 QUF       0.149000
     44 H10         25.7240     6.4530    21.8420 ha         1 QUF       0.116000
     45 H12         22.7100     8.4150    25.7600 hc         1 QUF       0.048700
     46 H13         21.4090     7.6940    24.7890 hc         1 QUF       0.048700
     47 H14         22.7180     6.6850    25.4070 hc         1 QUF       0.048700
     48 H16         18.8680    13.2360    16.5290 ha         1 QUF       0.126000
     49 H18         21.7550    10.1190    19.0030 h4         1 QUF       0.039100
     50 H1          17.9690    15.1780    24.3580 h1         1 QUF       0.060367
     51 H           18.7760    15.4470    22.7850 h1         1 QUF       0.060367
     52 H2          17.4080    14.3010    22.9040 h1         1 QUF       0.060367
     53 H3          20.9580    11.7680    25.6630 h4         1 QUF       0.047800
     54 H9          27.9130     5.5460    19.1540 ha         1 QUF       0.151500
     55 H11         24.4080     6.0960    23.8690 ha         1 QUF       0.120000
     56 H15         18.9240    13.4320    19.0110 ha         1 QUF       0.138000
     57 H17         20.2550    11.4920    15.3970 h4         1 QUF       0.021100
     58 H4          21.8940     9.9810    24.3520 hn         1 QUF       0.505000
     59 C20         22.4880     7.6710    24.9860 c3         1 QUF      -0.054800
     60 C15         29.8060     4.8600    17.2670 c3         1 QUF       0.346300
@<TRIPOS>BOND
     1     1    15 1   
     2     1    18 2   
     3     2     7 1   
     4     2    29 1   
     5     2    40 1   
     6     3    28 ar  
     7     3    36 1   
     8     3    37 ar  
     9     4     5 ar  
    10     4    24 ar  
    11     4    36 1   
    12     5     6 ar  
    13     5    41 1   
    14     6     7 1   
    15     6    10 ar  
    16     7    17 2   
    17     8    19 ar  
    18     8    29 ar  
    19     8    42 1   
    20     9    19 ar  
    21     9    21 ar  
    22     9    43 1   
    23    10    23 ar  
    24    10    44 1   
    25    11    12 1   
    26    11    37 ar  
    27    11    39 ar  
    28    12    14 ar  
    29    12    26 ar  
    30    13    26 ar  
    31    13    27 ar  
    32    13    48 1   
    33    14    38 ar  
    34    14    49 1   
    35    15    16 1   
    36    15    25 1   
    37    16    50 1   
    38    16    51 1   
    39    16    52 1   
    40    18    28 1   
    41    18    53 1   
    42    19    20 1   
    43    20    30 1   
    44    20    31 1   
    45    20    32 1   
    46    21    22 ar  
    47    21    60 1   
    48    22    29 ar  
    49    22    54 1   
    50    23    24 ar  
    51    23    55 1   
    52    24    59 1   
    53    25    28 ar  
    54    25    39 ar  
    55    26    56 1   
    56    27    38 ar  
    57    27    57 1   
    58    33    60 1   
    59    34    60 1   
    60    35    60 1   
    61    36    58 1   
    62    45    59 1   
    63    46    59 1   
    64    47    59 1   
@<TRIPOS>SUBSTRUCTURE
     1 QUF         1 TEMP              0 ****  ****    0 ROOT
