@<TRIPOS>MOLECULE
QUG
   35    37     1     0     0
SMALL
No Charge or Current Charge


@<TRIPOS>ATOM
      1 N            3.6630    43.4220    74.7660 nc         1 QUG      -0.769100
      2 C            2.4820    43.9120    74.9540 cd         1 QUG       0.893100
      3 O            6.7330    40.9880    72.1510 oh         1 QUG      -0.697000
      4 C1           3.8830    42.1150    74.4310 c          1 QUG       0.772100
      5 C10          5.9290    37.7660    70.5260 c2         1 QUG      -0.211200
      6 C2           2.6550    41.3380    74.3020 cc         1 QUG      -0.273600
      7 C3           1.4720    41.9130    74.4810 cd         1 QUG       0.239000
      8 C4           1.0240    39.7830    74.0170 cd         1 QUG      -0.175000
      9 C5           2.4000    39.9660    73.9980 cc         1 QUG      -0.073300
     10 C6           6.4300    39.1860    70.4040 c5         1 QUG       0.195500
     11 C7           6.7650    39.5660    71.8970 c5         1 QUG       0.121300
     12 C8           5.7050    38.6930    72.6820 c5         1 QUG       0.168700
     13 C9           5.5060    37.5050    71.7680 c2         1 QUG      -0.199200
     14 N1           1.3240    43.2320    74.8270 na         1 QUG      -0.924200
     15 N2           0.4340    41.0260    74.3320 na         1 QUG      -0.142000
     16 N3           4.3940    39.3880    72.7200 n7         1 QUG      -0.867400
     17 N4           2.3640    45.1700    75.2460 nv         1 QUG      -1.045200
     18 O1           7.5630    39.2740    69.5420 oh         1 QUG      -0.663000
     19 O2           5.0120    41.6820    74.2440 o          1 QUG      -0.610100
     20 H1           6.2980    41.1300    73.0310 ho         1 QUG       0.493000
     21 H2           5.8890    37.0520    69.7030 ha         1 QUG       0.195000
     22 H3           2.9880    37.9710    73.4490 h1         1 QUG       0.046700
     23 H4           3.9840    38.7410    74.7000 h1         1 QUG       0.046700
     24 H5           0.4380    38.8860    73.8470 h4         1 QUG       0.159000
     25 H6           5.6210    39.8290    70.0270 h1         1 QUG       0.056700
     26 H7           7.7640    39.1800    72.1420 h1         1 QUG       0.049700
     27 H8           6.0690    38.4210    73.6850 h1         1 QUG       0.052700
     28 H9           5.0920    36.5470    72.0830 ha         1 QUG       0.188000
     29 H10          0.4370    43.6730    75.0190 hn         1 QUG       0.501000
     30 H11         -0.5520    41.2310    74.4320 hn         1 QUG       0.353000
     31 H12          4.5800    40.3620    72.9840 hn         1 QUG       0.434000
     32 H14          3.2370    45.6630    75.1260 hn         1 QUG       0.501000
     33 H15          1.5660    45.6290    74.8350 hn         1 QUG       0.501000
     34 H16          7.9040    40.1910    69.6450 ho         1 QUG       0.447000
     35 C11          3.4590    38.9170    73.7500 c3         1 QUG       0.235100
@<TRIPOS>BOND
     1     1     2 2   
     2     1     4 1   
     3     2    14 1   
     4     2    17 1   
     5     3    11 1   
     6     3    20 1   
     7     4     6 1   
     8     4    19 2   
     9     5    10 1   
    10     5    13 2   
    11     5    21 1   
    12     6     7 2   
    13     6     9 1   
    14     7    14 1   
    15     7    15 1   
    16     8     9 2   
    17     8    15 1   
    18     8    24 1   
    19     9    35 1   
    20    10    11 1   
    21    10    18 1   
    22    10    25 1   
    23    11    12 1   
    24    11    26 1   
    25    12    13 1   
    26    12    16 1   
    27    12    27 1   
    28    13    28 1   
    29    14    29 1   
    30    15    30 1   
    31    16    31 1   
    32    16    35 1   
    33    17    32 1   
    34    17    33 1   
    35    18    34 1   
    36    22    35 1   
    37    23    35 1   
@<TRIPOS>SUBSTRUCTURE
     1 QUG         1 TEMP              0 ****  ****    0 ROOT
