@<TRIPOS>MOLECULE
QUG
   35    37     1     0     0
SMALL
abcg2


@<TRIPOS>ATOM
      1 N            3.7570    43.5080    74.7850 nc         1 QUG      -0.769100
      2 C            2.5570    44.0290    74.9190 cd         1 QUG       0.893100
      3 O            5.8800    40.8930    71.9490 oh         1 QUG      -0.697000
      4 C1           3.9400    42.1660    74.5290 c          1 QUG       0.772100
      5 C10          6.2350    37.7480    70.3440 c2         1 QUG      -0.211200
      6 C2           2.7580    41.3530    74.4090 cc         1 QUG      -0.273600
      7 C3           1.5260    41.9680    74.5640 cd         1 QUG       0.239000
      8 C4           1.1270    39.8130    74.2120 cd         1 QUG      -0.175000
      9 C5           2.4860    39.9530    74.1850 cc         1 QUG      -0.073300
     10 C6           6.6450    39.1900    70.4110 c5         1 QUG       0.195500
     11 C7           6.3810    39.5730    71.8780 c5         1 QUG       0.121300
     12 C8           5.4170    38.4700    72.4430 c5         1 QUG       0.168700
     13 C9           5.5720    37.3640    71.4280 c2         1 QUG      -0.199200
     14 N1           1.4050    43.3030    74.8150 na         1 QUG      -0.924200
     15 N2           0.5410    41.0550    74.4450 na         1 QUG      -0.142000
     16 N3           4.0270    38.9240    72.5780 n7         1 QUG      -0.867400
     17 N4           2.4240    45.3420    75.2080 nv         1 QUG      -1.045200
     18 O1           8.0130    39.3400    70.0090 oh         1 QUG      -0.663000
     19 O2           5.1020    41.7150    74.4140 o          1 QUG      -0.610100
     20 H1           5.6670    41.1250    72.8780 ho         1 QUG       0.493000
     21 H2           6.4410    37.1390    69.4740 ha         1 QUG       0.195000
     22 H3           3.0370    37.9050    74.1340 h1         1 QUG       0.046700
     23 H4           4.3040    38.9950    74.6800 h1         1 QUG       0.046700
     24 H5           0.5130    38.9380    74.0910 h4         1 QUG       0.159000
     25 H6           6.0170    39.8040    69.7570 h1         1 QUG       0.056700
     26 H7           7.3310    39.4950    72.4120 h1         1 QUG       0.049700
     27 H8           5.7660    38.1420    73.4250 h1         1 QUG       0.052700
     28 H9           5.1410    36.3840    71.5840 ha         1 QUG       0.188000
     29 H10          0.5010    43.7330    74.9420 hn         1 QUG       0.501000
     30 H11         -0.4460    41.2360    74.5210 hn         1 QUG       0.353000
     31 H12          3.9720    39.8740    72.2370 hn         1 QUG       0.434000
     32 H14          3.2480    45.9110    75.1240 hn         1 QUG       0.501000
     33 H15          1.5370    45.8010    75.0910 hn         1 QUG       0.501000
     34 H16          8.1970    40.2800    69.9150 ho         1 QUG       0.447000
     35 C11          3.4940    38.8790    73.9530 c3         1 QUG       0.235100
@<TRIPOS>BOND
     1     1     2 2   
     2     1     4 1   
     3     2    14 1   
     4     2    17 1   
     5     3    11 1   
     6     3    20 1   
     7     4     6 1   
     8     4    19 2   
     9     5    10 1   
    10     5    13 2   
    11     5    21 1   
    12     6     7 2   
    13     6     9 1   
    14     7    14 1   
    15     7    15 1   
    16     8     9 2   
    17     8    15 1   
    18     8    24 1   
    19     9    35 1   
    20    10    11 1   
    21    10    18 1   
    22    10    25 1   
    23    11    12 1   
    24    11    26 1   
    25    12    13 1   
    26    12    16 1   
    27    12    27 1   
    28    13    28 1   
    29    14    29 1   
    30    15    30 1   
    31    16    31 1   
    32    16    35 1   
    33    17    32 1   
    34    17    33 1   
    35    18    34 1   
    36    22    35 1   
    37    23    35 1   
@<TRIPOS>SUBSTRUCTURE
     1 QUG         1 TEMP              0 ****  ****    0 ROOT
