@<TRIPOS>MOLECULE
QUH
   72    74     1     0     0
SMALL
No Charge or Current Charge


@<TRIPOS>ATOM
      1 O1           2.6980     1.4940     2.5570 o          1 QUH      -0.584100
      2 C1           3.4680     2.0480     1.7840 c          1 QUH       0.619100
      3 C2           4.5210     3.0500     2.2520 c3         1 QUH      -0.158400
      4 C3           3.8690     4.4080     2.5860 c3         1 QUH       0.176300
      5 O2           3.2820     4.9500     1.3960 oh         1 QUH      -0.650000
      6 C4           4.8840     5.4250     3.1420 c3         1 QUH      -0.128100
      7 N1           3.4670     1.8020     0.4290 ns         1 QUH      -0.473900
      8 C5           2.6100     0.8170    -0.2690 c6         1 QUH       0.075700
      9 C6           1.9700     1.4580    -1.5360 c6         1 QUH       0.133300
     10 O3           1.1680     2.5940    -1.1630 oh         1 QUH      -0.703000
     11 C7           1.1260     0.4010    -2.3190 c6         1 QUH       0.150300
     12 C8           0.6210     0.9310    -3.6870 c3         1 QUH      -0.085100
     13 O4           1.9210    -0.7740    -2.6080 os         1 QUH      -0.472000
     14 C9           3.4040    -0.4700    -0.6610 c6         1 QUH       0.129300
     15 O5           4.0820    -1.0370     0.4930 oh         1 QUH      -0.782000
     16 C10          2.4390    -1.4560    -1.4460 c6         1 QUH       0.420300
     17 O6           1.3140    -1.9130    -0.6920 os         1 QUH      -0.611400
     18 P1           1.4700    -3.1910     0.2590 p5         1 QUH       1.484800
     19 O7           2.7320    -3.0650     1.0470 o          1 QUH      -0.836500
     20 O8           1.4170    -4.4310    -0.5700 o          1 QUH      -0.836500
     21 O9           0.2210    -2.8730     1.1590 os         1 QUH      -0.684800
     22 P2          -0.5220    -4.1610     1.6680 p5         1 QUH       1.460800
     23 O10          0.3870    -5.1340     2.3440 o          1 QUH      -0.848000
     24 O11         -1.4020    -4.8040     0.6450 o          1 QUH      -0.848000
     25 O12         -1.4280    -3.4480     2.8000 os         1 QUH      -0.569400
     26 C11         -2.5900    -2.6610     2.4660 c3         1 QUH       0.230600
     27 C12         -2.1830    -1.2280     2.0110 c5         1 QUH       0.168300
     28 C13         -3.2000    -0.1160     2.4020 c5         1 QUH       0.126300
     29 O13         -3.1770     0.2190     3.7940 oh         1 QUH      -0.700000
     30 C14         -2.6840     1.0540     1.5200 c5         1 QUH      -0.154400
     31 C15         -2.0860     0.3020     0.2890 c5         1 QUH       0.346700
     32 O14         -2.1830    -1.1050     0.5740 os         1 QUH      -0.403000
     33 N2          -2.8470     0.7380    -0.9150 n          1 QUH      -0.310000
     34 C16         -2.3430     1.8120    -1.6520 cc         1 QUH       0.025600
     35 C17         -2.9850     2.2430    -2.7920 cd         1 QUH      -0.300400
     36 C18         -2.4990     3.4000    -3.6360 c3         1 QUH      -0.007900
     37 C19         -4.2210     1.5650    -3.2480 c          1 QUH       0.597200
     38 O15         -4.8530     1.8670    -4.2470 o          1 QUH      -0.564000
     39 N3          -4.6240     0.5530    -2.4380 ns         1 QUH      -0.468500
     40 C20         -4.0480     0.0950    -1.2950 c          1 QUH       0.621000
     41 O16         -4.5950    -0.7950    -0.6650 o          1 QUH      -0.533000
     42 H1           4.9970     2.6600     3.1620 hc         1 QUH       0.053700
     43 H2           5.2770     3.2050     1.4690 hc         1 QUH       0.053700
     44 H3           3.0940     4.2450     3.3520 h1         1 QUH       0.056700
     45 H4           2.9550     5.8490     1.6250 ho         1 QUH       0.427000
     46 H5           5.3520     5.0380     4.0590 hc         1 QUH       0.030700
     47 H6           5.6770     5.6290     2.4100 hc         1 QUH       0.030700
     48 H7           4.3860     6.3730     3.3910 hc         1 QUH       0.030700
     49 H8           4.1600     2.3030    -0.1140 hn         1 QUH       0.285500
     50 H9           1.7920     0.5150     0.4040 h1         1 QUH       0.137700
     51 H10          2.7840     1.7960    -2.1940 h1         1 QUH       0.003700
     52 H11          1.7490     3.1790    -0.6260 ho         1 QUH       0.478000
     53 H12          0.2520     0.1080    -1.7180 h1         1 QUH       0.093700
     54 H13          1.4580     1.2090    -4.3400 hc         1 QUH       0.026700
     55 H14          0.0220     0.1710    -4.2040 hc         1 QUH       0.026700
     56 H15         -0.0090     1.8170    -3.5610 hc         1 QUH       0.026700
     57 H16          4.1760    -0.1570    -1.3800 h1         1 QUH       0.022700
     58 H17          3.5530    -1.8630     0.7830 ho         1 QUH       0.593000
     59 H18          3.0250    -2.3230    -1.7930 h2         1 QUH       0.081700
     60 H21         -3.1920    -3.1410     1.6830 h1         1 QUH       0.028700
     61 H22         -3.2280    -2.5770     3.3560 h1         1 QUH       0.028700
     62 H23         -1.1830    -0.9920     2.4010 h1         1 QUH       0.078700
     63 H24         -4.2130    -0.4150     2.0920 h1         1 QUH       0.068700
     64 H25         -3.8100     0.9630     3.9240 ho         1 QUH       0.487000
     65 H26         -3.4840     1.7570     1.2610 hc         1 QUH       0.051700
     66 H27         -1.8990     1.6300     2.0240 hc         1 QUH       0.051700
     67 H28         -1.0360     0.5790     0.1370 h2         1 QUH       0.048700
     68 H29         -1.4370     2.2440    -1.2380 h4         1 QUH       0.202000
     69 H30         -2.2540     3.0720    -4.6540 hc         1 QUH       0.036033
     70 H31         -3.2620     4.1850    -3.7090 hc         1 QUH       0.036033
     71 H32         -1.5970     3.8560    -3.2100 hc         1 QUH       0.036033
     72 H33         -5.4720     0.0860    -2.7140 hn         1 QUH       0.336500
@<TRIPOS>BOND
     1     1     2 2   
     2     2     3 1   
     3     2     7 1   
     4     3     4 1   
     5     3    42 1   
     6     3    43 1   
     7     4     5 1   
     8     4     6 1   
     9     4    44 1   
    10     5    45 1   
    11     6    46 1   
    12     6    47 1   
    13     6    48 1   
    14     7     8 1   
    15     7    49 1   
    16     8     9 1   
    17     8    14 1   
    18     8    50 1   
    19     9    10 1   
    20     9    11 1   
    21     9    51 1   
    22    10    52 1   
    23    11    12 1   
    24    11    13 1   
    25    11    53 1   
    26    12    54 1   
    27    12    55 1   
    28    12    56 1   
    29    13    16 1   
    30    14    15 1   
    31    14    16 1   
    32    14    57 1   
    33    15    58 1   
    34    16    17 1   
    35    16    59 1   
    36    17    18 1   
    37    18    19 1   
    38    18    20 1   
    39    18    21 1   
    40    21    22 1   
    41    22    23 1   
    42    22    24 1   
    43    22    25 1   
    44    25    26 1   
    45    26    27 1   
    46    26    60 1   
    47    26    61 1   
    48    27    28 1   
    49    27    32 1   
    50    27    62 1   
    51    28    29 1   
    52    28    30 1   
    53    28    63 1   
    54    29    64 1   
    55    30    31 1   
    56    30    65 1   
    57    30    66 1   
    58    31    32 1   
    59    31    33 1   
    60    31    67 1   
    61    33    34 1   
    62    33    40 1   
    63    34    35 2   
    64    34    68 1   
    65    35    36 1   
    66    35    37 1   
    67    36    69 1   
    68    36    70 1   
    69    36    71 1   
    70    37    38 2   
    71    37    39 1   
    72    39    40 1   
    73    39    72 1   
    74    40    41 2   
@<TRIPOS>SUBSTRUCTURE
     1 QUH         1 TEMP              0 ****  ****    0 ROOT
