@<TRIPOS>MOLECULE
QUH
   72    74     1     0     0
SMALL
abcg2


@<TRIPOS>ATOM
      1 O1           3.5520     2.0310     1.8160 o          1 QUH      -0.584100
      2 C1           4.6900     2.1090     1.3720 c          1 QUH       0.619100
      3 C2           5.7760     2.8640     2.1100 c3         1 QUH      -0.158400
      4 C3           5.3190     4.2470     2.5420 c3         1 QUH       0.176300
      5 O2           4.9880     4.9530     1.3600 oh         1 QUH      -0.650000
      6 C4           6.3970     4.9620     3.3420 c3         1 QUH      -0.128100
      7 N1           5.0820     1.5290     0.2270 ns         1 QUH      -0.473900
      8 C5           4.2530     0.6780    -0.5860 c6         1 QUH       0.075700
      9 C6           4.2580     1.1470    -2.0380 c6         1 QUH       0.133300
     10 O3           3.7110     2.4400    -2.0870 oh         1 QUH      -0.703000
     11 C7           3.4540     0.1780    -2.9150 c6         1 QUH       0.150300
     12 C8           3.5720     0.5010    -4.3900 c3         1 QUH      -0.085100
     13 O4           3.9240    -1.1570    -2.7480 os         1 QUH      -0.472000
     14 C9           4.7420    -0.7730    -0.5200 c6         1 QUH       0.129300
     15 O5           4.8370    -1.2650     0.7810 oh         1 QUH      -0.782000
     16 C10          3.8870    -1.6480    -1.4480 c6         1 QUH       0.420300
     17 O6           2.5440    -1.6900    -1.0310 os         1 QUH      -0.611400
     18 P1           2.0300    -2.7160     0.1530 p5         1 QUH       1.484800
     19 O7           2.3920    -2.0940     1.4800 o          1 QUH      -0.836500
     20 O8           2.4470    -4.1120    -0.1690 o          1 QUH      -0.836500
     21 O9           0.4530    -2.4660    -0.1720 os         1 QUH      -0.684800
     22 P2          -0.7920    -3.2830     0.5300 p5         1 QUH       1.460800
     23 O10         -0.3000    -4.0610     1.7070 o          1 QUH      -0.848000
     24 O11         -1.5890    -3.9420    -0.5500 o          1 QUH      -0.848000
     25 O12         -1.5730    -1.9270     1.0370 os         1 QUH      -0.569400
     26 C11         -2.8920    -2.0740     1.5190 c3         1 QUH       0.230600
     27 C12         -3.3920    -0.7420     2.0180 c5         1 QUH       0.168300
     28 C13         -4.7840    -0.8300     2.6440 c5         1 QUH       0.126300
     29 O13         -4.6470    -1.0960     4.0170 oh         1 QUH      -0.700000
     30 C14         -5.3880     0.5350     2.3100 c5         1 QUH      -0.154400
     31 C15         -4.5680     1.0480     1.1220 c5         1 QUH       0.346700
     32 O14         -3.4960     0.1680     0.9370 os         1 QUH      -0.403000
     33 N2          -5.2870     1.1990    -0.1410 n          1 QUH      -0.310000
     34 C16         -5.2380     2.4020    -0.7970 cc         1 QUH       0.025600
     35 C17         -5.8320     2.6480    -1.9760 cd         1 QUH      -0.300400
     36 C18         -5.7650     3.9720    -2.6640 c3         1 QUH      -0.007900
     37 C19         -6.5650     1.5670    -2.6040 c          1 QUH       0.597200
     38 O15         -7.1540     1.6460    -3.6660 o          1 QUH      -0.564000
     39 N3          -6.5530     0.3820    -1.8910 ns         1 QUH      -0.468500
     40 C20         -5.9440     0.1230    -0.6910 c          1 QUH       0.621000
     41 O16         -5.9960    -0.9710    -0.1680 o          1 QUH      -0.533000
     42 H1           6.0390     2.2840     2.9990 hc         1 QUH       0.053700
     43 H2           6.6880     2.9470     1.5110 hc         1 QUH       0.053700
     44 H3           4.4340     4.1320     3.1800 h1         1 QUH       0.056700
     45 H4           4.6290     5.8090     1.6130 ho         1 QUH       0.427000
     46 H5           6.6390     4.4090     4.2510 hc         1 QUH       0.030700
     47 H6           7.3140     5.0730     2.7600 hc         1 QUH       0.030700
     48 H7           6.0620     5.9560     3.6430 hc         1 QUH       0.030700
     49 H8           6.0450     1.6380    -0.0520 hn         1 QUH       0.285500
     50 H9           3.2350     0.7400    -0.1940 h1         1 QUH       0.137700
     51 H10          5.3010     1.1450    -2.3940 h1         1 QUH       0.003700
     52 H11          4.0230     2.8790    -2.8830 ho         1 QUH       0.478000
     53 H12          2.4000     0.2480    -2.6160 h1         1 QUH       0.093700
     54 H13          4.6120     0.4760    -4.7200 hc         1 QUH       0.026700
     55 H14          3.0030    -0.2110    -4.9890 hc         1 QUH       0.026700
     56 H15          3.1700     1.4910    -4.6030 hc         1 QUH       0.026700
     57 H16          5.7600    -0.8010    -0.9310 h1         1 QUH       0.022700
     58 H17          3.9390    -1.4240     1.1550 ho         1 QUH       0.593000
     59 H18          4.3060    -2.6610    -1.4920 h2         1 QUH       0.081700
     60 H21         -3.5630    -2.4410     0.7330 h1         1 QUH       0.028700
     61 H22         -2.9380    -2.7850     2.3530 h1         1 QUH       0.028700
     62 H23         -2.6970    -0.3450     2.7720 h1         1 QUH       0.078700
     63 H24         -5.3610    -1.6200     2.1540 h1         1 QUH       0.068700
     64 H25         -5.5050    -1.3600     4.3610 ho         1 QUH       0.487000
     65 H26         -6.4570     0.5020     2.1110 hc         1 QUH       0.051700
     66 H27         -5.2340     1.2100     3.1540 hc         1 QUH       0.051700
     67 H28         -4.1960     2.0520     1.3410 h2         1 QUH       0.048700
     68 H29         -4.6740     3.1730    -0.2880 h4         1 QUH       0.202000
     69 H30         -5.3180     3.8820    -3.6550 hc         1 QUH       0.036033
     70 H31         -6.7590     4.4020    -2.7970 hc         1 QUH       0.036033
     71 H32         -5.1680     4.6790    -2.0910 hc         1 QUH       0.036033
     72 H33         -7.0510    -0.4000    -2.2990 hn         1 QUH       0.336500
@<TRIPOS>BOND
     1     1     2 2   
     2     2     3 1   
     3     2     7 1   
     4     3     4 1   
     5     3    42 1   
     6     3    43 1   
     7     4     5 1   
     8     4     6 1   
     9     4    44 1   
    10     5    45 1   
    11     6    46 1   
    12     6    47 1   
    13     6    48 1   
    14     7     8 1   
    15     7    49 1   
    16     8     9 1   
    17     8    14 1   
    18     8    50 1   
    19     9    10 1   
    20     9    11 1   
    21     9    51 1   
    22    10    52 1   
    23    11    12 1   
    24    11    13 1   
    25    11    53 1   
    26    12    54 1   
    27    12    55 1   
    28    12    56 1   
    29    13    16 1   
    30    14    15 1   
    31    14    16 1   
    32    14    57 1   
    33    15    58 1   
    34    16    17 1   
    35    16    59 1   
    36    17    18 1   
    37    18    19 1   
    38    18    20 1   
    39    18    21 1   
    40    21    22 1   
    41    22    23 1   
    42    22    24 1   
    43    22    25 1   
    44    25    26 1   
    45    26    27 1   
    46    26    60 1   
    47    26    61 1   
    48    27    28 1   
    49    27    32 1   
    50    27    62 1   
    51    28    29 1   
    52    28    30 1   
    53    28    63 1   
    54    29    64 1   
    55    30    31 1   
    56    30    65 1   
    57    30    66 1   
    58    31    32 1   
    59    31    33 1   
    60    31    67 1   
    61    33    34 1   
    62    33    40 1   
    63    34    35 2   
    64    34    68 1   
    65    35    36 1   
    66    35    37 1   
    67    36    69 1   
    68    36    70 1   
    69    36    71 1   
    70    37    38 2   
    71    37    39 1   
    72    39    40 1   
    73    39    72 1   
    74    40    41 2   
@<TRIPOS>SUBSTRUCTURE
     1 QUH         1 TEMP              0 ****  ****    0 ROOT
