@<TRIPOS>MOLECULE
QUI
   18    19     1     0     0
SMALL
abcg2


@<TRIPOS>ATOM
      1 N1           0.8760     0.0060     0.4310 nb         1 QUI      -0.616000
      2 C2          -0.0950    -0.0130     1.3020 ca         1 QUI       0.257500
      3 C3          -1.4540    -0.0280     0.8750 ca         1 QUI       0.332900
      4 N4          -1.8020    -0.0220    -0.3800 nb         1 QUI      -0.684000
      5 C5          -1.1110     0.0050    -2.6720 ca         1 QUI      -0.079000
      6 C6          -0.1010     0.0250    -3.5960 ca         1 QUI      -0.134000
      7 C7           1.2490     0.0370    -3.1850 ca         1 QUI      -0.135000
      8 C8           1.5720     0.0300    -1.8550 ca         1 QUI      -0.070000
      9 C9           0.5490     0.0110    -0.8810 ca         1 QUI       0.219000
     10 C10         -0.8030    -0.0020    -1.2950 ca         1 QUI       0.203000
     11 C            0.2400    -0.0180     2.7950 c          1 QUI       0.615500
     12 O1          -0.7420    -0.0530     3.5590 o          1 QUI      -0.692500
     13 O2           1.4420     0.0130     3.0930 o          1 QUI      -0.692500
     14 H3          -2.2460    -0.0440     1.6120 h4         1 QUI       0.045100
     15 H5          -2.1510    -0.0050    -2.9730 ha         1 QUI       0.113000
     16 H6          -0.3340     0.0300    -4.6530 ha         1 QUI       0.094000
     17 H7           2.0310     0.0510    -3.9330 ha         1 QUI       0.096000
     18 H8           2.6030     0.0390    -1.5250 ha         1 QUI       0.125000
@<TRIPOS>BOND
     1     1     2 ar  
     2     1     9 ar  
     3     2     3 ar  
     4     2    11 1   
     5     3     4 ar  
     6     3    14 1   
     7     4    10 ar  
     8     5     6 ar  
     9     5    10 ar  
    10     5    15 1   
    11     6     7 ar  
    12     6    16 1   
    13     7     8 ar  
    14     7    17 1   
    15     8     9 ar  
    16     8    18 1   
    17     9    10 ar  
    18    11    12 1   
    19    11    13 1   
@<TRIPOS>SUBSTRUCTURE
     1 QUI         1 TEMP              0 ****  ****    0 ROOT
