@<TRIPOS>MOLECULE
QUI
   18    19     1     0     0
SMALL
No Charge or Current Charge


@<TRIPOS>ATOM
      1 N1           0.9280     0.0070     0.4170 nb         1 QUI      -0.616000
      2 C2          -0.0930    -0.0130     1.3420 ca         1 QUI       0.257500
      3 C3          -1.4480    -0.0280     0.9210 ca         1 QUI       0.332900
      4 N4          -1.8130    -0.0230    -0.3930 nb         1 QUI      -0.684000
      5 C5          -1.1100     0.0030    -2.6770 ca         1 QUI      -0.079000
      6 C6          -0.0930     0.0240    -3.6460 ca         1 QUI      -0.134000
      7 C7           1.2510     0.0390    -3.2500 ca         1 QUI      -0.135000
      8 C8           1.5790     0.0330    -1.8840 ca         1 QUI      -0.070000
      9 C9           0.5740     0.0120    -0.8960 ca         1 QUI       0.219000
     10 C10         -0.8030    -0.0030    -1.3020 ca         1 QUI       0.203000
     11 C            0.2080    -0.0200     2.8510 c          1 QUI       0.615500
     12 O1          -0.7310    -0.0380     3.6400 o          1 QUI      -0.692500
     13 O2           1.3750    -0.0070     3.2340 o          1 QUI      -0.692500
     14 H3          -2.2640    -0.0440     1.6410 h4         1 QUI       0.045100
     15 H5          -2.1500    -0.0080    -2.9940 ha         1 QUI       0.113000
     16 H6          -0.3500     0.0280    -4.7030 ha         1 QUI       0.094000
     17 H7           2.0400     0.0540    -3.9980 ha         1 QUI       0.096000
     18 H8           2.6230     0.0450    -1.5840 ha         1 QUI       0.125000
@<TRIPOS>BOND
     1     1     2 ar  
     2     1     9 ar  
     3     2     3 ar  
     4     2    11 1   
     5     3     4 ar  
     6     3    14 1   
     7     4    10 ar  
     8     5     6 ar  
     9     5    10 ar  
    10     5    15 1   
    11     6     7 ar  
    12     6    16 1   
    13     7     8 ar  
    14     7    17 1   
    15     8     9 ar  
    16     8    18 1   
    17     9    10 ar  
    18    11    12 1   
    19    11    13 1   
@<TRIPOS>SUBSTRUCTURE
     1 QUI         1 TEMP              0 ****  ****    0 ROOT
