@<TRIPOS>MOLECULE
QUJ
   34    35     1     0     0
SMALL
No Charge or Current Charge


@<TRIPOS>ATOM
      1 C2          -2.8820    -1.5930    -0.0490 ca         1 QUJ       0.326000
      2 C3          -2.5740    -2.9600    -0.0050 ca         1 QUJ      -0.229000
      3 C4          -1.2410    -3.3840     0.0670 ca         1 QUJ      -0.098000
      4 C5          -0.2070    -2.4390     0.0960 ca         1 QUJ      -0.130000
      5 C6          -0.4950    -1.0560     0.0570 ca         1 QUJ      -0.076000
      6 C8           0.5450    -0.1030     0.0900 ca         1 QUJ       0.130100
      7 C9           0.2120     1.2620     0.0510 ca         1 QUJ      -0.215000
      8 C10         -1.1400     1.6610    -0.0180 ca         1 QUJ       0.326500
      9 O           -0.5910     4.0060    -0.0320 o          1 QUJ      -0.701500
     10 C           -1.4990     3.1790    -0.0580 c          1 QUJ       0.611500
     11 N11         -2.1370     0.7250    -0.0500 nb         1 QUJ      -0.674000
     12 C7          -1.8390    -0.6070    -0.0160 ca         1 QUJ       0.239000
     13 N           -4.2190    -1.2460    -0.1200 nv         1 QUJ      -1.077000
     14 OB           1.8580    -0.5330     0.1600 os         1 QUJ      -0.360100
     15 CG           2.9740     0.3760     0.1770 c3         1 QUJ       0.167600
     16 CD           4.2800    -0.4540     0.2480 c3         1 QUJ      -0.063700
     17 CE2          4.4650    -1.3710    -0.9860 c3         1 QUJ      -0.085100
     18 CE1          5.5090     0.4600     0.4490 c3         1 QUJ      -0.085100
     19 H1          -3.3680    -3.7020    -0.0290 ha         1 QUJ       0.093000
     20 H2          -1.0070    -4.4460     0.0990 ha         1 QUJ       0.087000
     21 H3           0.8210    -2.7910     0.1520 ha         1 QUJ       0.110000
     22 H4           0.9800     2.0270     0.0750 ha         1 QUJ       0.146000
     23 H6          -4.4510    -0.2620     0.0080 hn         1 QUJ       0.467000
     24 H7          -4.9300    -1.9300     0.1270 hn         1 QUJ       0.467000
     25 H8           2.9840     0.9980    -0.7270 h1         1 QUJ       0.041200
     26 H9           2.9140     1.0350     1.0540 h1         1 QUJ       0.041200
     27 H10          4.2100    -1.1000     1.1330 hc         1 QUJ       0.052700
     28 H11          4.5180    -0.7790    -1.9070 hc         1 QUJ       0.032033
     29 H12          5.3900    -1.9540    -0.8990 hc         1 QUJ       0.032033
     30 H13          3.6320    -2.0780    -1.0800 hc         1 QUJ       0.032033
     31 H14          5.3960     1.0670     1.3560 hc         1 QUJ       0.032033
     32 H15          6.4230    -0.1370     0.5550 hc         1 QUJ       0.032033
     33 H16          5.6370     1.1370    -0.4040 hc         1 QUJ       0.032033
     34 OXT         -2.6770     3.5230    -0.1150 o          1 QUJ      -0.701500
@<TRIPOS>BOND
     1     1     2 ar  
     2     1    12 ar  
     3     1    13 1   
     4     2     3 ar  
     5     2    19 1   
     6     3     4 ar  
     7     3    20 1   
     8     4     5 ar  
     9     4    21 1   
    10     5     6 ar  
    11     5    12 ar  
    12     6     7 ar  
    13     6    14 1   
    14     7     8 ar  
    15     7    22 1   
    16     8    10 1   
    17     8    11 ar  
    18     9    10 1   
    19    10    34 1   
    20    11    12 ar  
    21    13    23 1   
    22    13    24 1   
    23    14    15 1   
    24    15    16 1   
    25    15    25 1   
    26    15    26 1   
    27    16    17 1   
    28    16    18 1   
    29    16    27 1   
    30    17    28 1   
    31    17    29 1   
    32    17    30 1   
    33    18    31 1   
    34    18    32 1   
    35    18    33 1   
@<TRIPOS>SUBSTRUCTURE
     1 QUJ         1 TEMP              0 ****  ****    0 ROOT
