@<TRIPOS>MOLECULE
QUJ
   34    35     1     0     0
SMALL
abcg2


@<TRIPOS>ATOM
      1 C2          -2.8360    -1.5630    -0.0810 ca         1 QUJ       0.326000
      2 C3          -2.5510    -2.9150    -0.0190 ca         1 QUJ      -0.229000
      3 C4          -1.2270    -3.3680     0.0790 ca         1 QUJ      -0.098000
      4 C5          -0.1680    -2.4960     0.1200 ca         1 QUJ      -0.130000
      5 C6          -0.4260    -1.1090     0.0710 ca         1 QUJ      -0.076000
      6 C8           0.6000    -0.1210     0.1150 ca         1 QUJ       0.130100
      7 C9           0.2560     1.2070     0.0720 ca         1 QUJ      -0.215000
      8 C10         -1.1070     1.5660    -0.0070 ca         1 QUJ       0.326500
      9 O           -0.5360     3.8560    -0.0040 o          1 QUJ      -0.701500
     10 C           -1.4870     3.0510    -0.0370 c          1 QUJ       0.611500
     11 N11         -2.0700     0.6810    -0.0550 nb         1 QUJ      -0.674000
     12 C7          -1.7500    -0.6300    -0.0240 ca         1 QUJ       0.239000
     13 N           -4.1050    -1.0790    -0.2370 nv         1 QUJ      -1.077000
     14 OB           1.8470    -0.5870     0.1980 os         1 QUJ      -0.360100
     15 CG           2.9340     0.3270     0.2210 c3         1 QUJ       0.167600
     16 CD           4.2330    -0.4590     0.2690 c3         1 QUJ      -0.063700
     17 CE2          4.3990    -1.3630    -0.9480 c3         1 QUJ      -0.085100
     18 CE1          5.3950     0.5230     0.3800 c3         1 QUJ      -0.085100
     19 H1          -3.3600    -3.6340    -0.0530 ha         1 QUJ       0.093000
     20 H2          -1.0450    -4.4340     0.1210 ha         1 QUJ       0.087000
     21 H3           0.8450    -2.8660     0.1920 ha         1 QUJ       0.110000
     22 H4           0.9930     1.9950     0.1030 ha         1 QUJ       0.146000
     23 H6          -4.2210    -0.1020    -0.0190 hn         1 QUJ       0.467000
     24 H7          -4.8590    -1.6680     0.0750 hn         1 QUJ       0.467000
     25 H8           2.9140     0.9600    -0.6750 h1         1 QUJ       0.041200
     26 H9           2.8530     0.9820     1.0960 h1         1 QUJ       0.041200
     27 H10          4.2220    -1.0800     1.1720 hc         1 QUJ       0.052700
     28 H11          4.4020    -0.7760    -1.8700 hc         1 QUJ       0.032033
     29 H12          5.3460    -1.9020    -0.8990 hc         1 QUJ       0.032033
     30 H13          3.6040    -2.1040    -1.0250 hc         1 QUJ       0.032033
     31 H14          5.3080     1.1550     1.2660 hc         1 QUJ       0.032033
     32 H15          6.3450    -0.0080     0.4430 hc         1 QUJ       0.032033
     33 H16          5.4410     1.1770    -0.4940 hc         1 QUJ       0.032033
     34 OXT         -2.6980     3.3160    -0.0900 o          1 QUJ      -0.701500
@<TRIPOS>BOND
     1     1     2 ar  
     2     1    12 ar  
     3     1    13 1   
     4     2     3 ar  
     5     2    19 1   
     6     3     4 ar  
     7     3    20 1   
     8     4     5 ar  
     9     4    21 1   
    10     5     6 ar  
    11     5    12 ar  
    12     6     7 ar  
    13     6    14 1   
    14     7     8 ar  
    15     7    22 1   
    16     8    10 1   
    17     8    11 ar  
    18     9    10 1   
    19    10    34 1   
    20    11    12 ar  
    21    13    23 1   
    22    13    24 1   
    23    14    15 1   
    24    15    16 1   
    25    15    25 1   
    26    15    26 1   
    27    16    17 1   
    28    16    18 1   
    29    16    27 1   
    30    17    28 1   
    31    17    29 1   
    32    17    30 1   
    33    18    31 1   
    34    18    32 1   
    35    18    33 1   
@<TRIPOS>SUBSTRUCTURE
     1 QUJ         1 TEMP              0 ****  ****    0 ROOT
