@<TRIPOS>MOLECULE
QUK
   33    34     1     0     0
SMALL
abcg2


@<TRIPOS>ATOM
      1 O            0.4820    -3.8290    -0.0700 o          1 QUK      -0.701500
      2 C            1.4750    -3.0760    -0.0520 c          1 QUK       0.612500
      3 C10          1.1730    -1.5730    -0.0140 ca         1 QUK       0.325500
      4 N11          2.1820    -0.7410    -0.0020 nb         1 QUK      -0.673000
      5 C7           1.9320     0.5850     0.0200 ca         1 QUK       0.238000
      6 C2           3.0680     1.4590     0.0290 ca         1 QUK       0.327000
      7 N            4.3160     0.9050     0.0940 nv         1 QUK      -1.077000
      8 C9          -0.1700    -1.1420     0.0030 ca         1 QUK      -0.214000
      9 C8          -0.4460     0.2020     0.0200 ca         1 QUK       0.129100
     10 C6           0.6310     1.1350     0.0230 ca         1 QUK      -0.075000
     11 C5           0.4470     2.5340     0.0220 ca         1 QUK      -0.130000
     12 C4           1.5510     3.3480     0.0130 ca         1 QUK      -0.098000
     13 C3           2.8520     2.8240     0.0160 ca         1 QUK      -0.229000
     14 OB          -1.6700     0.7340     0.0320 os         1 QUK      -0.358100
     15 CG          -2.8020    -0.1260     0.0230 c3         1 QUK       0.165600
     16 CD          -4.0460     0.7350     0.0190 c3         1 QUK      -0.083400
     17 CE          -5.3070    -0.1180     0.0090 c3         1 QUK       0.147800
     18 OXT          2.6710    -3.4040    -0.0630 o          1 QUK      -0.701500
     19 H1           4.3650    -0.0710    -0.1520 hn         1 QUK       0.467000
     20 H2           5.0810     1.4600    -0.2490 hn         1 QUK       0.467000
     21 H3          -0.9490    -1.8890    -0.0030 ha         1 QUK       0.145000
     22 H4          -0.5470     2.9590     0.0230 ha         1 QUK       0.111000
     23 H5           1.4240     4.4230     0.0050 ha         1 QUK       0.087000
     24 H6           3.6990     3.5000     0.0140 ha         1 QUK       0.093000
     25 H7          -2.7780    -0.7700    -0.8630 h1         1 QUK       0.039200
     26 H8          -2.7880    -0.7750     0.9060 h1         1 QUK       0.039200
     27 H9          -4.0560     1.3830     0.8990 hc         1 QUK       0.055700
     28 H10         -4.0370     1.3830    -0.8630 hc         1 QUK       0.055700
     29 H11         -5.2560    -0.8260    -0.8310 h1         1 QUK       0.029700
     30 H12         -5.3380    -0.7230     0.9180 h1         1 QUK       0.029700
     31 N1          -6.4910     0.7270    -0.0180 n8         1 QUK      -0.997200
     32 H13         -6.5420     1.2000    -0.9120 hn         1 QUK       0.387000
     33 H15         -7.3190     0.1470     0.0290 hn         1 QUK       0.387000
@<TRIPOS>BOND
     1     1     2 1   
     2     2     3 1   
     3     2    18 1   
     4     3     4 ar  
     5     3     8 ar  
     6     4     5 ar  
     7     5     6 ar  
     8     5    10 ar  
     9     6     7 1   
    10     6    13 ar  
    11     7    19 1   
    12     7    20 1   
    13     8     9 ar  
    14     8    21 1   
    15     9    10 ar  
    16     9    14 1   
    17    10    11 ar  
    18    11    12 ar  
    19    11    22 1   
    20    12    13 ar  
    21    12    23 1   
    22    13    24 1   
    23    14    15 1   
    24    15    16 1   
    25    15    25 1   
    26    15    26 1   
    27    16    17 1   
    28    16    27 1   
    29    16    28 1   
    30    17    29 1   
    31    17    30 1   
    32    17    31 1   
    33    31    32 1   
    34    31    33 1   
@<TRIPOS>SUBSTRUCTURE
     1 QUK         1 TEMP              0 ****  ****    0 ROOT
