@<TRIPOS>MOLECULE
QUK
   33    34     1     0     0
SMALL
No Charge or Current Charge


@<TRIPOS>ATOM
      1 O            0.5400    -3.9860    -0.0150 o          1 QUK      -0.701500
      2 C            1.4880    -3.2050    -0.0140 c          1 QUK       0.612500
      3 C10          1.2050    -1.6700    -0.0020 ca         1 QUK       0.325500
      4 N11          2.2490    -0.7860     0.0020 nb         1 QUK      -0.673000
      5 C7           2.0170     0.5590     0.0130 ca         1 QUK       0.238000
      6 C2           3.1090     1.4910     0.0170 ca         1 QUK       0.327000
      7 N            4.4290     1.0760     0.0150 nv         1 QUK      -1.077000
      8 C9          -0.1270    -1.2040     0.0030 ca         1 QUK      -0.214000
      9 C8          -0.3920     0.1770     0.0120 ca         1 QUK       0.129100
     10 C6           0.6950     1.0760     0.0150 ca         1 QUK      -0.075000
     11 C5           0.4760     2.4720     0.0200 ca         1 QUK      -0.130000
     12 C4           1.5570     3.3640     0.0200 ca         1 QUK      -0.098000
     13 C3           2.8690     2.8730     0.0180 ca         1 QUK      -0.229000
     14 OB          -1.6840     0.6730     0.0150 os         1 QUK      -0.358100
     15 CG          -2.8420    -0.1800     0.0120 c3         1 QUK       0.165600
     16 CD          -4.0880     0.7250     0.0170 c3         1 QUK      -0.083400
     17 CE          -5.4010    -0.0820     0.0120 c3         1 QUK       0.147800
     18 OXT          2.6490    -3.6080    -0.0230 o          1 QUK      -0.701500
     19 H1           4.6030     0.0850    -0.1460 hn         1 QUK       0.467000
     20 H2           5.1610     1.7300    -0.2510 hn         1 QUK       0.467000
     21 H3          -0.9330    -1.9290    -0.0000 ha         1 QUK       0.145000
     22 H4          -0.5340     2.8760     0.0220 ha         1 QUK       0.111000
     23 H5           1.3760     4.4370     0.0230 ha         1 QUK       0.087000
     24 H6           3.7000     3.5730     0.0200 ha         1 QUK       0.093000
     25 H7          -2.8540    -0.8150    -0.8840 h1         1 QUK       0.039200
     26 H8          -2.8530    -0.8240     0.9010 h1         1 QUK       0.039200
     27 H9          -4.0590     1.3670     0.9060 hc         1 QUK       0.055700
     28 H10         -4.0570     1.3800    -0.8620 hc         1 QUK       0.055700
     29 H11         -5.4440    -0.7150    -0.8860 h1         1 QUK       0.029700
     30 H12         -5.4390    -0.7310     0.8980 h1         1 QUK       0.029700
     31 N1          -6.5810     0.8030     0.0250 n8         1 QUK      -0.997200
     32 H13         -6.5990     1.3510    -0.8440 hn         1 QUK       0.387000
     33 H15         -7.4310     0.2290    -0.0350 hn         1 QUK       0.387000
@<TRIPOS>BOND
     1     1     2 1   
     2     2     3 1   
     3     2    18 1   
     4     3     4 ar  
     5     3     8 ar  
     6     4     5 ar  
     7     5     6 ar  
     8     5    10 ar  
     9     6     7 1   
    10     6    13 ar  
    11     7    19 1   
    12     7    20 1   
    13     8     9 ar  
    14     8    21 1   
    15     9    10 ar  
    16     9    14 1   
    17    10    11 ar  
    18    11    12 ar  
    19    11    22 1   
    20    12    13 ar  
    21    12    23 1   
    22    13    24 1   
    23    14    15 1   
    24    15    16 1   
    25    15    25 1   
    26    15    26 1   
    27    16    17 1   
    28    16    27 1   
    29    16    28 1   
    30    17    29 1   
    31    17    30 1   
    32    17    31 1   
    33    31    32 1   
    34    31    33 1   
@<TRIPOS>SUBSTRUCTURE
     1 QUK         1 TEMP              0 ****  ****    0 ROOT
