@<TRIPOS>MOLECULE
QUL
   49    52     1     0     0
SMALL
No Charge or Current Charge


@<TRIPOS>ATOM
      1 N1          -2.8480     1.4860     0.5370 nb         1 QUL      -0.641000
      2 C2          -1.9160     3.5820     1.1700 ca         1 QUL      -0.086000
      3 C3          -0.8310     4.4670     1.2740 ca         1 QUL      -0.105000
      4 C4           0.4380     4.0730     0.8270 ca         1 QUL      -0.116000
      5 C5           0.6260     2.7940     0.2820 ca         1 QUL      -0.088000
      6 C6          -0.2840     0.5850    -0.3620 ca         1 QUL       0.290000
      7 N6           0.9480     0.0760    -0.7980 nu         1 QUL      -0.940200
      8 N7          -1.6610    -1.5200    -0.8890 na         1 QUL      -0.250600
      9 C8          -3.6720    -3.0730    -1.0430 ca         1 QUL      -0.161000
     10 C9          -5.0550    -3.1340    -0.7640 ca         1 QUL      -0.063000
     11 C1           2.0410    -0.3130     0.1240 c3         1 QUL       0.192800
     12 C10         -5.7260    -2.0210    -0.1970 ca         1 QUL      -0.161000
     13 C11         -5.0270    -0.8290     0.1020 ca         1 QUL      -0.020000
     14 C1A         -2.6570     0.2720     0.0020 cp         1 QUL       0.406500
     15 C11A        -3.6490    -0.7780    -0.1810 cp         1 QUL      -0.215500
     16 C7           3.3480    -0.6900    -0.6370 c3         1 QUL       0.164800
     17 C2A         -1.7590     2.2930     0.6260 ca         1 QUL       0.269000
     18 N3           4.5560    -0.9560     0.2090 n3         1 QUL      -0.736600
     19 C12          4.3450    -2.0820     1.1650 c3         1 QUL       0.174800
     20 C4X          5.8000    -1.1130    -0.5990 c3         1 QUL       0.174800
     21 C13          5.4590    -2.2720     2.2170 c3         1 QUL      -0.090600
     22 C5A         -0.4570     1.8880     0.1840 ca         1 QUL      -0.073000
     23 C5X          6.1910     0.1130    -1.4530 c3         1 QUL      -0.090600
     24 C6A         -1.4340    -0.1990    -0.4450 ca         1 QUL      -0.108200
     25 C8A         -3.0080    -1.8830    -0.7380 ca         1 QUL       0.024800
     26 H2          -2.8980     3.9000     1.5120 ha         1 QUL       0.128000
     27 H3          -0.9760     5.4590     1.6960 ha         1 QUL       0.114000
     28 H4           1.2780     4.7620     0.8990 ha         1 QUL       0.113000
     29 H5           1.6150     2.5180    -0.0720 ha         1 QUL       0.121000
     30 HN6          0.8590    -0.5330    -1.6120 hn         1 QUL       0.439000
     31 HN7         -0.9400    -2.1430    -1.2370 hn         1 QUL       0.348000
     32 H8          -3.1450    -3.9200    -1.4760 ha         1 QUL       0.116000
     33 H9          -5.6100    -4.0430    -0.9870 ha         1 QUL       0.111000
     34 H1           2.2680     0.5140     0.8100 h1         1 QUL       0.049200
     35 H6           3.1390    -1.5650    -1.2690 h1         1 QUL       0.037700
     36 H7           3.4210    -1.9190     1.7320 h1         1 QUL       0.027950
     37 H12          5.1380    -2.9980     2.9730 hc         1 QUL       0.037533
     38 H1'A         1.7080    -1.1640     0.7320 h1         1 QUL       0.049200
     39 H2'A         3.5510     0.1480    -1.3150 h1         1 QUL       0.037700
     40 H4'A         4.2190    -3.0240     0.6140 h1         1 QUL       0.027950
     41 H5'A         6.3810    -2.6520     1.7640 hc         1 QUL       0.037533
     42 H5'B         5.6770    -1.3250     2.7240 hc         1 QUL       0.037533
     43 H10         -6.7910    -2.0840     0.0120 ha         1 QUL       0.116000
     44 H11         -5.5390     0.0270     0.5380 ha         1 QUL       0.130000
     45 H4X          6.6530    -1.3000     0.0640 h1         1 QUL       0.027950
     46 H5X          7.1970    -0.0270    -1.8670 hc         1 QUL       0.037533
     47 H4XA         5.7130    -1.9860    -1.2600 h1         1 QUL       0.027950
     48 H5XA         5.5040     0.2530    -2.2940 hc         1 QUL       0.037533
     49 H5XB         6.1970     1.0230    -0.8430 hc         1 QUL       0.037533
@<TRIPOS>BOND
     1     1    14 ar  
     2     1    17 ar  
     3     2     3 ar  
     4     2    17 ar  
     5     2    26 1   
     6     3     4 ar  
     7     3    27 1   
     8     4     5 ar  
     9     4    28 1   
    10     5    22 ar  
    11     5    29 1   
    12     6     7 1   
    13     6    22 ar  
    14     6    24 ar  
    15     7    11 1   
    16     7    30 1   
    17     8    24 1   
    18     8    25 1   
    19     8    31 1   
    20     9    10 ar  
    21     9    25 ar  
    22     9    32 1   
    23    10    12 ar  
    24    10    33 1   
    25    11    16 1   
    26    11    34 1   
    27    11    38 1   
    28    12    13 ar  
    29    12    43 1   
    30    13    15 ar  
    31    13    44 1   
    32    14    15 1   
    33    14    24 ar  
    34    15    25 ar  
    35    16    18 1   
    36    16    35 1   
    37    16    39 1   
    38    17    22 ar  
    39    18    19 1   
    40    18    20 1   
    41    19    21 1   
    42    19    36 1   
    43    19    40 1   
    44    20    23 1   
    45    20    45 1   
    46    20    47 1   
    47    21    37 1   
    48    21    41 1   
    49    21    42 1   
    50    23    46 1   
    51    23    48 1   
    52    23    49 1   
@<TRIPOS>SUBSTRUCTURE
     1 QUL         1 TEMP              0 ****  ****    0 ROOT
