@<TRIPOS>MOLECULE
QUL
   49    52     1     0     0
SMALL
bcc


@<TRIPOS>ATOM
      1 N1          -2.6280     1.5180     0.3870 nb         1 QUL      -0.641000
      2 C2          -1.3850     3.5100     0.6940 ca         1 QUL      -0.169300
      3 C3          -0.2270     4.2270     0.6000 ca         1 QUL      -0.123000
      4 C4           0.9470     3.6130     0.1130 ca         1 QUL      -0.134000
      5 C5           0.9400     2.2900    -0.2310 ca         1 QUL      -0.106000
      6 C6          -0.2530     0.1170    -0.4390 ca         1 QUL       0.151600
      7 N6           0.8880    -0.5560    -0.8350 nu         1 QUL      -0.746600
      8 N7          -1.8850    -1.7680    -0.6690 na         1 QUL      -0.200300
      9 C8          -4.0530    -3.0070    -0.6140 ca         1 QUL      -0.179000
     10 C9          -5.4010    -2.8520    -0.3380 ca         1 QUL      -0.081000
     11 C1           2.0120    -0.7070     0.0860 c3         1 QUL       0.192800
     12 C10         -5.9330    -1.6250     0.0820 ca         1 QUL      -0.179000
     13 C11         -5.1130    -0.5220     0.2380 ca         1 QUL      -0.038000
     14 C1A         -2.6420     0.2610     0.0160 cp         1 QUL       0.471800
     15 C11A        -3.7550    -0.6560    -0.0340 cp         1 QUL      -0.215500
     16 C7           3.3200    -0.7750    -0.6880 c3         1 QUL       0.164800
     17 C2A         -1.4340     2.1410     0.3280 ca         1 QUL       0.399600
     18 N3           4.4560    -0.9680     0.1940 n3         1 QUL      -0.736600
     19 C12          4.6580    -2.3740     0.5120 c3         1 QUL       0.174800
     20 C4X          5.6590    -0.3250    -0.3160 c3         1 QUL       0.174800
     21 C13          5.4610    -2.5910     1.7840 c3         1 QUL      -0.090600
     22 C5A         -0.2310     1.5020    -0.1040 ca         1 QUL      -0.138300
     23 C5X          5.6460     1.1810    -0.1070 c3         1 QUL      -0.090600
     24 C6A         -1.4970    -0.4780    -0.3900 ca         1 QUL      -0.173500
     25 C8A         -3.2340    -1.8920    -0.4590 ca         1 QUL       0.024800
     26 H2          -2.3010     3.9730     1.0400 ha         1 QUL       0.146000
     27 H3          -0.2100     5.2730     0.8790 ha         1 QUL       0.132000
     28 H4           1.8510     4.1970    -0.0010 ha         1 QUL       0.131000
     29 H5           1.8400     1.8440    -0.6320 ha         1 QUL       0.139000
     30 HN6          0.6910    -1.4220    -1.3150 hn         1 QUL       0.383800
     31 HN7         -1.2780    -2.5300    -0.9160 hn         1 QUL       0.297700
     32 H8          -3.6540    -3.9590    -0.9380 ha         1 QUL       0.134000
     33 H9          -6.0610    -3.7020    -0.4510 ha         1 QUL       0.129000
     34 H1           2.0440     0.1440     0.7640 h1         1 QUL       0.049200
     35 H6           3.2610    -1.5600    -1.4610 h1         1 QUL       0.037700
     36 H7           3.6780    -2.8350     0.6510 h1         1 QUL       0.027950
     37 H12          5.5160    -3.6550     2.0150 hc         1 QUL       0.037533
     38 H1'A         1.8790    -1.5960     0.7130 h1         1 QUL       0.049200
     39 H2'A         3.4310     0.1660    -1.2320 h1         1 QUL       0.037700
     40 H4'A         5.1280    -2.9130    -0.3270 h1         1 QUL       0.027950
     41 H5'A         6.4850    -2.2250     1.7010 hc         1 QUL       0.037533
     42 H5'B         4.9900    -2.0840     2.6260 hc         1 QUL       0.037533
     43 H10         -6.9920    -1.5460     0.2860 ha         1 QUL       0.134000
     44 H11         -5.5160     0.4290     0.5640 ha         1 QUL       0.148000
     45 H4X          6.5220    -0.7330     0.2110 h1         1 QUL       0.027950
     46 H5X          6.5680     1.6260    -0.4840 hc         1 QUL       0.037533
     47 H4XA         5.8190    -0.5570    -1.3820 h1         1 QUL       0.027950
     48 H5XA         4.8170     1.6670    -0.6250 hc         1 QUL       0.037533
     49 H5XB         5.5630     1.4200     0.9540 hc         1 QUL       0.037533
@<TRIPOS>BOND
     1     1    14 ar  
     2     1    17 ar  
     3     2     3 ar  
     4     2    17 ar  
     5     2    26 1   
     6     3     4 ar  
     7     3    27 1   
     8     4     5 ar  
     9     4    28 1   
    10     5    22 ar  
    11     5    29 1   
    12     6     7 1   
    13     6    22 ar  
    14     6    24 ar  
    15     7    11 1   
    16     7    30 1   
    17     8    24 1   
    18     8    25 1   
    19     8    31 1   
    20     9    10 ar  
    21     9    25 ar  
    22     9    32 1   
    23    10    12 ar  
    24    10    33 1   
    25    11    16 1   
    26    11    34 1   
    27    11    38 1   
    28    12    13 ar  
    29    12    43 1   
    30    13    15 ar  
    31    13    44 1   
    32    14    15 1   
    33    14    24 ar  
    34    15    25 ar  
    35    16    18 1   
    36    16    35 1   
    37    16    39 1   
    38    17    22 ar  
    39    18    19 1   
    40    18    20 1   
    41    19    21 1   
    42    19    36 1   
    43    19    40 1   
    44    20    23 1   
    45    20    45 1   
    46    20    47 1   
    47    21    37 1   
    48    21    41 1   
    49    21    42 1   
    50    23    46 1   
    51    23    48 1   
    52    23    49 1   
@<TRIPOS>SUBSTRUCTURE
     1 QUL         1 TEMP              0 ****  ****    0 ROOT
