@<TRIPOS>MOLECULE
QUM
   58    60     1     0     0
SMALL
No Charge or Current Charge


@<TRIPOS>ATOM
      1 C2          -5.2830     2.2570    -0.5200 ca         1 QUM       0.094100
      2 C3          -6.1450     1.2530    -1.0060 ca         1 QUM      -0.134000
      3 C4          -6.4610     0.1560    -0.1880 ca         1 QUM      -0.145000
      4 C11         -5.9100     0.0420     1.0970 ca         1 QUM       0.300000
      5 C12         -5.0160     1.0130     1.5820 ca         1 QUM      -0.186900
      6 C1          -4.7320     2.1370     0.7660 ca         1 QUM      -0.098000
      7 N10         -6.2840    -1.0320     1.8890 na         1 QUM      -0.952000
      8 C14         -6.1560    -0.9260     3.2630 ca         1 QUM       0.340000
      9 C13         -5.2510    -0.0140     3.8220 ca         1 QUM      -0.201900
     10 C9          -4.4350     0.7840     2.9140 cc         1 QUM       0.572500
     11 C5          -6.9230    -1.7600     4.0860 ca         1 QUM      -0.187000
     12 C6          -6.7810    -1.6920     5.4780 ca         1 QUM       0.175000
     13 C7          -5.8610    -0.8020     6.0490 ca         1 QUM      -0.159000
     14 C8          -5.0850     0.0310     5.2250 ca         1 QUM      -0.019000
     15 N18         -3.2440     1.1490     3.3220 n2         1 QUM      -0.639900
     16 C19         -2.1180     1.7530     2.5900 c3         1 QUM       0.147500
     17 C20         -1.0070     2.0600     3.6190 c3         1 QUM      -0.080100
     18 C21         -1.6340     0.8060     1.4570 c3         1 QUM      -0.083400
     19 C22         -0.5630     1.4220     0.5220 c3         1 QUM      -0.074400
     20 C23         -0.2190     0.5330    -0.6980 c3         1 QUM       0.189800
     21 N24          0.2000    -0.8650    -0.3830 n3         1 QUM      -0.778600
     22 C27          1.4520    -0.9240     0.4370 c3         1 QUM       0.179300
     23 C25          0.2620    -1.7370    -1.5990 c3         1 QUM       0.179300
     24 C28          1.8150    -2.3160     1.0060 c3         1 QUM       0.127100
     25 C26         -1.0760    -1.9230    -2.3550 c3         1 QUM       0.127100
     26 Cl1         -7.7460    -2.7390     6.5100 cl         1 QUM      -0.202000
     27 O15         -4.9540     3.3760    -1.2590 os         1 QUM      -0.344100
     28 C17         -5.4580     3.5940    -2.5900 c3         1 QUM       0.148900
     29 Cl2         -0.9340    -3.1790    -3.6660 cl         1 QUM      -0.294000
     30 Cl3          3.2160    -2.2180     2.1680 cl         1 QUM      -0.294000
     31 H3          -6.5890     1.3150    -1.9960 ha         1 QUM       0.121000
     32 H4          -7.1460    -0.6050    -0.5540 ha         1 QUM       0.115000
     33 H1          -4.1130     2.9490     1.1240 ha         1 QUM       0.133000
     34 H10         -6.7260    -1.8490     1.4750 hn         1 QUM       0.503000
     35 H5          -7.6270    -2.4620     3.6500 ha         1 QUM       0.129000
     36 H7          -5.7440    -0.7600     7.1290 ha         1 QUM       0.134000
     37 H8          -4.3680     0.7130     5.6780 ha         1 QUM       0.143000
     38 H19         -2.4010     2.7180     2.1580 h1         1 QUM       0.039700
     39 H201        -0.6180     1.1360     4.0640 hc         1 QUM       0.037700
     40 H202        -1.3930     2.6930     4.4260 hc         1 QUM       0.037700
     41 H203        -0.1730     2.5950     3.1510 hc         1 QUM       0.037700
     42 H211        -2.4840     0.5050     0.8350 hc         1 QUM       0.053200
     43 H212        -1.2420    -0.1160     1.9040 hc         1 QUM       0.053200
     44 H221         0.3490     1.6480     1.0840 hc         1 QUM       0.042700
     45 H222        -0.9340     2.3830     0.1460 hc         1 QUM       0.042700
     46 H231        -1.1190     0.5210    -1.3260 h1         1 QUM       0.034700
     47 H232         0.5650     1.0340    -1.2820 h1         1 QUM       0.034700
     48 H271         2.3030    -0.5590    -0.1550 h1         1 QUM       0.048200
     49 H272         1.3620    -0.2600     1.3050 h1         1 QUM       0.048200
     50 H251         1.0050    -1.3420    -2.3040 h1         1 QUM       0.048200
     51 H252         0.5930    -2.7440    -1.3190 h1         1 QUM       0.048200
     52 H281         2.1030    -3.0060     0.2040 h1         1 QUM       0.070700
     53 H282         0.9600    -2.7320     1.5530 h1         1 QUM       0.070700
     54 H261        -1.3910    -0.9870    -2.8320 h1         1 QUM       0.070700
     55 H262        -1.8570    -2.2550    -1.6600 h1         1 QUM       0.070700
     56 H171        -5.1460     2.7840    -3.2620 h1         1 QUM       0.040700
     57 H172        -5.0720     4.5380    -2.9920 h1         1 QUM       0.040700
     58 H173        -6.5540     3.6490    -2.5880 h1         1 QUM       0.040700
@<TRIPOS>BOND
     1     1     2 ar  
     2     1     6 ar  
     3     1    27 1   
     4     2     3 ar  
     5     2    31 1   
     6     3     4 ar  
     7     3    32 1   
     8     4     5 ar  
     9     4     7 1   
    10     5     6 ar  
    11     5    10 1   
    12     6    33 1   
    13     7     8 1   
    14     7    34 1   
    15     8     9 ar  
    16     8    11 ar  
    17     9    10 1   
    18     9    14 ar  
    19    10    15 2   
    20    11    12 ar  
    21    11    35 1   
    22    12    13 ar  
    23    12    26 1   
    24    13    14 ar  
    25    13    36 1   
    26    14    37 1   
    27    15    16 1   
    28    16    17 1   
    29    16    18 1   
    30    16    38 1   
    31    17    39 1   
    32    17    40 1   
    33    17    41 1   
    34    18    19 1   
    35    18    42 1   
    36    18    43 1   
    37    19    20 1   
    38    19    44 1   
    39    19    45 1   
    40    20    21 1   
    41    20    46 1   
    42    20    47 1   
    43    21    22 1   
    44    21    23 1   
    45    22    24 1   
    46    22    48 1   
    47    22    49 1   
    48    23    25 1   
    49    23    50 1   
    50    23    51 1   
    51    24    30 1   
    52    24    52 1   
    53    24    53 1   
    54    25    29 1   
    55    25    54 1   
    56    25    55 1   
    57    27    28 1   
    58    28    56 1   
    59    28    57 1   
    60    28    58 1   
@<TRIPOS>SUBSTRUCTURE
     1 QUM         1 TEMP              0 ****  ****    0 ROOT
