@<TRIPOS>MOLECULE
QUM
   58    60     1     0     0
SMALL
bcc


@<TRIPOS>ATOM
      1 C2          -4.9770     2.0130    -0.6940 ca         1 QUM       0.094100
      2 C3          -6.1380     1.3330    -1.0660 ca         1 QUM      -0.152000
      3 C4          -6.7220     0.4550    -0.1780 ca         1 QUM      -0.163000
      4 C11         -6.1690     0.2210     1.0820 ca         1 QUM       0.161600
      5 C12         -4.9750     0.8650     1.4620 ca         1 QUM      -0.186900
      6 C1          -4.4200     1.7700     0.5500 ca         1 QUM      -0.116000
      7 N10         -6.8160    -0.6380     1.9330 na         1 QUM      -0.620000
      8 C14         -6.4300    -0.8240     3.2230 ca         1 QUM       0.201600
      9 C13         -5.2430    -0.2400     3.6820 ca         1 QUM      -0.201900
     10 C9          -4.3670     0.5430     2.7780 cc         1 QUM       0.572500
     11 C5          -7.2230    -1.6050     4.0770 ca         1 QUM      -0.205000
     12 C6          -6.8260    -1.7790     5.3810 ca         1 QUM       0.083400
     13 C7          -5.6590    -1.1980     5.8770 ca         1 QUM      -0.177000
     14 C8          -4.8880    -0.4450     5.0180 ca         1 QUM      -0.037000
     15 N18         -3.2150     0.8210     3.2510 n2         1 QUM      -0.639900
     16 C19         -2.1300     1.5350     2.6210 c3         1 QUM       0.147500
     17 C20         -1.0950     1.8420     3.6980 c3         1 QUM      -0.080100
     18 C21         -1.5100     0.7110     1.4830 c3         1 QUM      -0.083400
     19 C22         -0.5350     1.5060     0.6220 c3         1 QUM      -0.074400
     20 C23         -0.1990     0.8060    -0.6880 c3         1 QUM       0.189800
     21 N24          0.2980    -0.5460    -0.5030 n3         1 QUM      -0.778600
     22 C27          1.6550    -0.6300    -0.0100 c3         1 QUM       0.179300
     23 C25          0.0040    -1.4360    -1.6050 c3         1 QUM       0.179300
     24 C28          1.7460    -1.7420     1.0190 c3         1 QUM       0.050500
     25 C26         -1.3850    -2.0200    -1.4190 c3         1 QUM       0.050500
     26 CL1         -7.8060    -2.7390     6.4390 cl         1 QUM      -0.110400
     27 O15         -4.3320     2.9060    -1.4750 os         1 QUM      -0.320900
     28 C17         -4.8540     3.1690    -2.7610 c3         1 QUM       0.125700
     29 CL2         -1.8140    -3.0720    -2.8170 cl         1 QUM      -0.217400
     30 CL3          3.4370    -1.8990     1.6230 cl         1 QUM      -0.217400
     31 H3          -6.6010     1.4800    -2.0320 ha         1 QUM       0.139000
     32 H4          -7.6330    -0.0580    -0.4600 ha         1 QUM       0.133000
     33 H1          -3.5270     2.3190     0.7950 ha         1 QUM       0.151000
     34 H10         -7.6790    -1.0550     1.6210 hn         1 QUM       0.447800
     35 H5          -8.1340    -2.0570     3.7070 ha         1 QUM       0.147000
     36 H7          -5.3670    -1.3370     6.9080 ha         1 QUM       0.152000
     37 H8          -3.9740     0.0060     5.3760 ha         1 QUM       0.161000
     38 H19         -2.4590     2.5040     2.2240 h1         1 QUM       0.039700
     39 H201        -0.6960     0.9180     4.1220 hc         1 QUM       0.037700
     40 H202        -1.5390     2.4210     4.5080 hc         1 QUM       0.037700
     41 H203        -0.2600     2.4200     3.2990 hc         1 QUM       0.037700
     42 H211        -2.3040     0.3130     0.8450 hc         1 QUM       0.053200
     43 H212        -1.0110    -0.1610     1.9140 hc         1 QUM       0.053200
     44 H221         0.3770     1.7310     1.1820 hc         1 QUM       0.042700
     45 H222        -0.9700     2.4790     0.3690 hc         1 QUM       0.042700
     46 H231        -1.1140     0.7510    -1.2850 h1         1 QUM       0.034700
     47 H232         0.5040     1.4220    -1.2690 h1         1 QUM       0.034700
     48 H271         2.3870    -0.7980    -0.8120 h1         1 QUM       0.048200
     49 H272         1.9300     0.3110     0.4680 h1         1 QUM       0.048200
     50 H251         0.0730    -0.9340    -2.5800 h1         1 QUM       0.048200
     51 H252         0.7260    -2.2540    -1.6230 h1         1 QUM       0.048200
     52 H281         1.4680    -2.7100     0.6040 h1         1 QUM       0.070700
     53 H282         1.1120    -1.5300     1.8770 h1         1 QUM       0.070700
     54 H261        -2.1490    -1.2480    -1.3600 h1         1 QUM       0.070700
     55 H262        -1.4310    -2.6330    -0.5210 h1         1 QUM       0.070700
     56 H171        -4.8690     2.2720    -3.3880 h1         1 QUM       0.040700
     57 H172        -4.1950     3.9030    -3.2190 h1         1 QUM       0.040700
     58 H173        -5.8640     3.5830    -2.7180 h1         1 QUM       0.040700
@<TRIPOS>BOND
     1     1     2 ar  
     2     1     6 ar  
     3     1    27 1   
     4     2     3 ar  
     5     2    31 1   
     6     3     4 ar  
     7     3    32 1   
     8     4     5 ar  
     9     4     7 1   
    10     5     6 ar  
    11     5    10 1   
    12     6    33 1   
    13     7     8 1   
    14     7    34 1   
    15     8     9 ar  
    16     8    11 ar  
    17     9    10 1   
    18     9    14 ar  
    19    10    15 2   
    20    11    12 ar  
    21    11    35 1   
    22    12    13 ar  
    23    12    26 1   
    24    13    14 ar  
    25    13    36 1   
    26    14    37 1   
    27    15    16 1   
    28    16    17 1   
    29    16    18 1   
    30    16    38 1   
    31    17    39 1   
    32    17    40 1   
    33    17    41 1   
    34    18    19 1   
    35    18    42 1   
    36    18    43 1   
    37    19    20 1   
    38    19    44 1   
    39    19    45 1   
    40    20    21 1   
    41    20    46 1   
    42    20    47 1   
    43    21    22 1   
    44    21    23 1   
    45    22    24 1   
    46    22    48 1   
    47    22    49 1   
    48    23    25 1   
    49    23    50 1   
    50    23    51 1   
    51    24    30 1   
    52    24    52 1   
    53    24    53 1   
    54    25    29 1   
    55    25    54 1   
    56    25    55 1   
    57    27    28 1   
    58    28    56 1   
    59    28    57 1   
    60    28    58 1   
@<TRIPOS>SUBSTRUCTURE
     1 QUM         1 TEMP              0 ****  ****    0 ROOT
