@<TRIPOS>MOLECULE
QUN
   58    60     1     0     0
SMALL
bcc


@<TRIPOS>ATOM
      1 C1           3.1300    -0.4210     0.7240 ca         1 QUN       0.123100
      2 C2           4.0450    -0.4110    -0.3640 ca         1 QUN      -0.169000
      3 C3           3.5930    -0.2290    -1.6350 ca         1 QUN      -0.150300
      4 C4           2.2110    -0.0640    -1.9190 ca         1 QUN       0.413600
      5 C5           1.2910    -0.1430    -0.8330 ca         1 QUN      -0.134300
      6 C6           1.7880    -0.2890     0.4840 ca         1 QUN      -0.152000
      7 N1           1.8550     0.1850    -3.1800 nb         1 QUN      -0.672000
      8 C7           0.5660     0.3680    -3.4380 ca         1 QUN       0.437600
      9 C8          -0.4610     0.2630    -2.4470 ca         1 QUN      -0.204300
     10 C9          -0.0870    -0.0120    -1.1170 ca         1 QUN       0.195600
     11 C10          0.2010     0.6590    -4.7860 ca         1 QUN      -0.167300
     12 C11         -1.1060     0.8130    -5.1170 ca         1 QUN       0.036400
     13 C12         -2.1390     0.6770    -4.1560 ca         1 QUN      -0.130000
     14 C13         -1.8130     0.4060    -2.8640 ca         1 QUN      -0.101000
     15 CL          -1.5520     1.1720    -6.7500 cl         1 QUN      -0.107400
     16 O            3.5150    -0.5430     2.0090 os         1 QUN      -0.317900
     17 C14          4.8960    -0.5970     2.3130 c3         1 QUN       0.127700
     18 N2          -1.0140    -0.1140    -0.0990 nu         1 QUN      -0.729600
     19 C15         -1.2530    -1.4190     0.5420 c3         1 QUN       0.201500
     20 C16         -1.9570    -2.3840    -0.4070 c3         1 QUN      -0.129100
     21 C17         -2.0580    -1.2100     1.8180 c3         1 QUN      -0.074400
     22 C18         -1.3390    -0.4080     2.8940 c3         1 QUN      -0.078400
     23 C19         -2.1960    -0.2360     4.1400 c3         1 QUN       0.173800
     24 N3          -1.5270     0.5180     5.1880 n3         1 QUN      -0.730600
     25 C20         -1.5990     1.9510     4.9420 c3         1 QUN       0.172300
     26 C21         -2.0070     0.1640     6.5150 c3         1 QUN       0.172300
     27 C22         -0.5040     2.7350     5.6490 c3         1 QUN      -0.089600
     28 C23         -1.4600    -1.1650     7.0100 c3         1 QUN      -0.089600
     29 H21          5.1080    -0.5250    -0.2000 ha         1 QUN       0.138000
     30 H31          4.2910    -0.1950    -2.4620 ha         1 QUN       0.150000
     31 H61          1.1070    -0.2590     1.3230 ha         1 QUN       0.160000
     32 H101         0.9890     0.7490    -5.5210 ha         1 QUN       0.164000
     33 H121        -3.1730     0.7810    -4.4530 ha         1 QUN       0.147000
     34 H131        -2.6230     0.2940    -2.1560 ha         1 QUN       0.126000
     35 H141         4.9680    -0.6500     3.3970 h1         1 QUN       0.040367
     36 H142         5.3780    -1.4810     1.8890 h1         1 QUN       0.040367
     37 H143         5.4260     0.2950     1.9710 h1         1 QUN       0.040367
     38 HN21        -1.8990     0.3160    -0.3350 hn         1 QUN       0.387800
     39 H151        -0.2830    -1.8470     0.8060 h1         1 QUN       0.074700
     40 H161        -2.9400    -2.0030    -0.6950 hc         1 QUN       0.043033
     41 H162        -1.3770    -2.5460    -1.3170 hc         1 QUN       0.043033
     42 H163        -2.1030    -3.3530     0.0720 hc         1 QUN       0.043033
     43 H171        -2.3220    -2.1950     2.2150 hc         1 QUN       0.040200
     44 H172        -3.0090    -0.7260     1.5640 hc         1 QUN       0.040200
     45 H181        -1.0480     0.5650     2.4890 hc         1 QUN       0.057200
     46 H182        -0.4130    -0.9190     3.1780 hc         1 QUN       0.057200
     47 H191        -2.4420    -1.2300     4.5210 h1         1 QUN       0.026200
     48 H192        -3.1610     0.2260     3.8670 h1         1 QUN       0.026200
     49 H201        -2.5880     2.3570     5.2130 h1         1 QUN       0.027950
     50 H202        -1.4920     2.1180     3.8680 h1         1 QUN       0.027950
     51 H211        -1.6880     0.9390     7.2140 h1         1 QUN       0.027950
     52 H212        -3.1090     0.1570     6.5590 h1         1 QUN       0.027950
     53 H221        -0.5830     3.7950     5.4060 hc         1 QUN       0.036033
     54 H222        -0.5600     2.6480     6.7350 hc         1 QUN       0.036033
     55 H223         0.4800     2.3870     5.3350 hc         1 QUN       0.036033
     56 H231        -1.8000    -1.3590     8.0280 hc         1 QUN       0.036033
     57 H232        -1.7830    -2.0060     6.3960 hc         1 QUN       0.036033
     58 H233        -0.3690    -1.1530     7.0140 hc         1 QUN       0.036033
@<TRIPOS>BOND
     1     1     2 ar  
     2     1     6 ar  
     3     1    16 1   
     4     2     3 ar  
     5     2    29 1   
     6     3     4 ar  
     7     3    30 1   
     8     4     5 ar  
     9     4     7 ar  
    10     5     6 ar  
    11     5    10 ar  
    12     6    31 1   
    13     7     8 ar  
    14     8     9 ar  
    15     8    11 ar  
    16     9    10 ar  
    17     9    14 ar  
    18    10    18 1   
    19    11    12 ar  
    20    11    32 1   
    21    12    13 ar  
    22    12    15 1   
    23    13    14 ar  
    24    13    33 1   
    25    14    34 1   
    26    16    17 1   
    27    17    35 1   
    28    17    36 1   
    29    17    37 1   
    30    18    19 1   
    31    18    38 1   
    32    19    20 1   
    33    19    21 1   
    34    19    39 1   
    35    20    40 1   
    36    20    41 1   
    37    20    42 1   
    38    21    22 1   
    39    21    43 1   
    40    21    44 1   
    41    22    23 1   
    42    22    45 1   
    43    22    46 1   
    44    23    24 1   
    45    23    47 1   
    46    23    48 1   
    47    24    25 1   
    48    24    26 1   
    49    25    27 1   
    50    25    49 1   
    51    25    50 1   
    52    26    28 1   
    53    26    51 1   
    54    26    52 1   
    55    27    53 1   
    56    27    54 1   
    57    27    55 1   
    58    28    56 1   
    59    28    57 1   
    60    28    58 1   
@<TRIPOS>SUBSTRUCTURE
     1 QUN         1 TEMP              0 ****  ****    0 ROOT
