@<TRIPOS>MOLECULE
QUN
   58    60     1     0     0
SMALL
No Charge or Current Charge


@<TRIPOS>ATOM
      1 C1           3.2060    -0.0850     0.6170 ca         1 QUN       0.123100
      2 C2           4.0980     0.0480    -0.4640 ca         1 QUN      -0.151000
      3 C3           3.5950     0.1700    -1.7700 ca         1 QUN      -0.067000
      4 C4           2.2110     0.1550    -2.0280 ca         1 QUN       0.283000
      5 C5           1.3140     0.0000    -0.9450 ca         1 QUN      -0.069000
      6 C6           1.8260    -0.1040     0.3730 ca         1 QUN      -0.135000
      7 N1           1.7830     0.2960    -3.3000 nb         1 QUN      -0.672000
      8 C7           0.4620     0.3000    -3.5690 ca         1 QUN       0.307000
      9 C8          -0.5120     0.1450    -2.5530 ca         1 QUN      -0.139000
     10 C9          -0.0750    -0.0240    -1.2180 ca         1 QUN       0.334000
     11 C10          0.0460     0.4590    -4.9020 ca         1 QUN      -0.084000
     12 C11         -1.3150     0.4650    -5.2360 ca         1 QUN       0.128000
     13 C12         -2.2820     0.3100    -4.2360 ca         1 QUN      -0.112000
     14 C13         -1.8880     0.1500    -2.8990 ca         1 QUN      -0.083000
     15 Cl          -1.8080     0.6650    -6.9120 cl         1 QUN      -0.199000
     16 O            3.6310    -0.1940     1.9260 os         1 QUN      -0.341100
     17 C14          5.0250    -0.1810     2.2840 c3         1 QUN       0.150900
     18 N2          -1.0170    -0.2110    -0.1910 nu         1 QUN      -0.923200
     19 C15         -1.2270    -1.4860     0.5120 c3         1 QUN       0.201500
     20 C16         -1.9290    -2.4770    -0.4370 c3         1 QUN      -0.129100
     21 C17         -2.0430    -1.2500     1.8070 c3         1 QUN      -0.074400
     22 C18         -1.2970    -0.4250     2.8830 c3         1 QUN      -0.078400
     23 C19         -2.1320    -0.2180     4.1690 c3         1 QUN       0.173800
     24 N3          -1.3910     0.3500     5.3350 n3         1 QUN      -0.730600
     25 C20         -0.8020     1.6900     5.0440 c3         1 QUN       0.172300
     26 C21         -2.2010     0.3390     6.5880 c3         1 QUN       0.172300
     27 C22          0.1450     2.2470     6.1300 c3         1 QUN      -0.089600
     28 C23         -2.6670    -1.0540     7.0640 c3         1 QUN      -0.089600
     29 H21          5.1740     0.0670    -0.3130 ha         1 QUN       0.120000
     30 H31          4.2880     0.2840    -2.6000 ha         1 QUN       0.132000
     31 H61          1.1580    -0.1870     1.2230 ha         1 QUN       0.142000
     32 H101         0.7890     0.5770    -5.6840 ha         1 QUN       0.146000
     33 H121        -3.3380     0.3130    -4.4970 ha         1 QUN       0.129000
     34 H131        -2.6630     0.0270    -2.1480 ha         1 QUN       0.108000
     35 H141         5.1380    -0.2800     3.3710 h1         1 QUN       0.040367
     36 H142         5.5570    -1.0150     1.8100 h1         1 QUN       0.040367
     37 H143         5.4980     0.7600     1.9770 h1         1 QUN       0.040367
     38 HN21        -1.8770     0.3080    -0.3520 hn         1 QUN       0.443000
     39 H151        -0.2600    -1.9260     0.7980 h1         1 QUN       0.074700
     40 H161        -2.9110    -2.1000    -0.7440 hc         1 QUN       0.043033
     41 H162        -1.3260    -2.6480    -1.3370 hc         1 QUN       0.043033
     42 H163        -2.0730    -3.4440     0.0580 hc         1 QUN       0.043033
     43 H171        -2.3030    -2.2250     2.2380 hc         1 QUN       0.040200
     44 H172        -2.9910    -0.7560     1.5580 hc         1 QUN       0.040200
     45 H181        -1.0310     0.5490     2.4580 hc         1 QUN       0.057200
     46 H182        -0.3620    -0.9360     3.1430 hc         1 QUN       0.057200
     47 H191        -2.5300    -1.2050     4.4350 h1         1 QUN       0.026200
     48 H192        -2.9950     0.4180     3.9280 h1         1 QUN       0.026200
     49 H201        -1.6010     2.4230     4.8670 h1         1 QUN       0.027950
     50 H202        -0.2040     1.6430     4.1260 h1         1 QUN       0.027950
     51 H211        -1.6130     0.7550     7.4150 h1         1 QUN       0.027950
     52 H212        -3.0840     0.9820     6.4710 h1         1 QUN       0.027950
     53 H221         0.6600     3.1380     5.7530 hc         1 QUN       0.036033
     54 H222        -0.4040     2.5390     7.0320 hc         1 QUN       0.036033
     55 H223         0.9030     1.5030     6.4010 hc         1 QUN       0.036033
     56 H231        -3.0940    -0.9810     8.0700 hc         1 QUN       0.036033
     57 H232        -3.4400    -1.4670     6.4060 hc         1 QUN       0.036033
     58 H233        -1.8220    -1.7530     7.1010 hc         1 QUN       0.036033
@<TRIPOS>BOND
     1     1     2 ar  
     2     1     6 ar  
     3     1    16 1   
     4     2     3 ar  
     5     2    29 1   
     6     3     4 ar  
     7     3    30 1   
     8     4     5 ar  
     9     4     7 ar  
    10     5     6 ar  
    11     5    10 ar  
    12     6    31 1   
    13     7     8 ar  
    14     8     9 ar  
    15     8    11 ar  
    16     9    10 ar  
    17     9    14 ar  
    18    10    18 1   
    19    11    12 ar  
    20    11    32 1   
    21    12    13 ar  
    22    12    15 1   
    23    13    14 ar  
    24    13    33 1   
    25    14    34 1   
    26    16    17 1   
    27    17    35 1   
    28    17    36 1   
    29    17    37 1   
    30    18    19 1   
    31    18    38 1   
    32    19    20 1   
    33    19    21 1   
    34    19    39 1   
    35    20    40 1   
    36    20    41 1   
    37    20    42 1   
    38    21    22 1   
    39    21    43 1   
    40    21    44 1   
    41    22    23 1   
    42    22    45 1   
    43    22    46 1   
    44    23    24 1   
    45    23    47 1   
    46    23    48 1   
    47    24    25 1   
    48    24    26 1   
    49    25    27 1   
    50    25    49 1   
    51    25    50 1   
    52    26    28 1   
    53    26    51 1   
    54    26    52 1   
    55    27    53 1   
    56    27    54 1   
    57    27    55 1   
    58    28    56 1   
    59    28    57 1   
    60    28    58 1   
@<TRIPOS>SUBSTRUCTURE
     1 QUN         1 TEMP              0 ****  ****    0 ROOT
