@<TRIPOS>MOLECULE
QUP
   39    42     1     0     0
SMALL
bcc


@<TRIPOS>ATOM
      1 CL          -5.1650    -2.2000     1.1260 cl         1 QUP      -0.098400
      2 C19         -4.2410    -1.1040     0.1540 ca         1 QUP       0.028400
      3 C18         -2.9240    -0.8420     0.4910 ca         1 QUP      -0.092000
      4 C21         -4.8260    -0.4970    -0.9440 ca         1 QUP      -0.104000
      5 C22         -4.0710     0.3740    -1.7150 ca         1 QUP      -0.116000
      6 C23         -2.7430     0.6600    -1.4150 ca         1 QUP      -0.048300
      7 C24         -1.9390     1.5930    -2.2680 c3         1 QUP      -0.051800
      8 C17         -2.1980     0.0390    -0.2920 ca         1 QUP      -0.005200
      9 N16         -0.8340     0.2670     0.0450 na         1 QUP       0.050800
     10 C12         -0.2870     1.4130     0.5840 cc         1 QUP      -0.195900
     11 C13         -1.1230     2.5240     1.0750 c          1 QUP       0.710700
     12 N15         -0.4740     3.6870     1.2420 nt         1 QUP      -0.670000
     13 O14         -2.3100     2.3720     1.3230 o          1 QUP      -0.597100
     14 C11          1.0730     1.2400     0.6340 cd         1 QUP      -0.119000
     15 C25          0.1500    -0.6090    -0.2390 cc         1 QUP      -0.054300
     16 C1           1.3630    -0.0450     0.1130 cd         1 QUP      -0.265500
     17 C2           2.6360    -0.7240    -0.0330 cd         1 QUP       0.631800
     18 N10          2.6130    -2.0240    -0.2350 nc         1 QUP      -0.754000
     19 C9           3.7940    -2.6640    -0.3610 cc         1 QUP       0.624900
     20 N8           4.9840    -2.1590    -0.2990 nd         1 QUP      -0.530800
     21 N7           5.0080    -0.8340    -0.1070 na         1 QUP       0.225200
     22 C3           3.8730    -0.0370     0.0260 cd         1 QUP      -0.245600
     23 C6           6.1170    -0.0770    -0.0440 cd         1 QUP      -0.129100
     24 C5           5.7130     1.2370     0.1270 cc         1 QUP      -0.192000
     25 C4           4.3160     1.2710     0.1680 cc         1 QUP      -0.142000
     26 H18         -2.4660    -1.3030     1.3560 ha         1 QUP       0.163000
     27 H21         -5.8550    -0.7040    -1.2040 ha         1 QUP       0.151000
     28 H22         -4.5290     0.8380    -2.5790 ha         1 QUP       0.140000
     29 H241        -1.7580     2.5450    -1.7670 hc         1 QUP       0.050700
     30 H242        -0.9660     1.1710    -2.5220 hc         1 QUP       0.050700
     31 H243        -2.4610     1.8110    -3.1970 hc         1 QUP       0.050700
     32 H25         -0.0680    -1.5610    -0.6940 h4         1 QUP       0.191000
     33 H11          1.7700     1.9360     1.0690 ha         1 QUP       0.156000
     34 H151         0.4670     3.8360     0.9200 hn         1 QUP       0.318000
     35 H152        -0.9720     4.4880     1.5940 hn         1 QUP       0.318000
     36 H9           3.7520    -3.7330    -0.5240 h5         1 QUP       0.057100
     37 H6           7.0970    -0.5140    -0.1300 h4         1 QUP       0.185000
     38 H4           3.7060     2.1520     0.2720 ha         1 QUP       0.152000
     39 H5           6.3780     2.0830     0.2070 ha         1 QUP       0.156000
@<TRIPOS>BOND
     1     1     2 1   
     2     2     3 ar  
     3     2     4 ar  
     4     3     8 ar  
     5     3    26 1   
     6     4     5 ar  
     7     4    27 1   
     8     5     6 ar  
     9     5    28 1   
    10     6     7 1   
    11     6     8 ar  
    12     7    29 1   
    13     7    30 1   
    14     7    31 1   
    15     8     9 1   
    16     9    10 1   
    17     9    15 1   
    18    10    11 1   
    19    10    14 2   
    20    11    12 1   
    21    11    13 2   
    22    12    34 1   
    23    12    35 1   
    24    14    16 1   
    25    14    33 1   
    26    15    16 2   
    27    15    32 1   
    28    16    17 1   
    29    17    18 2   
    30    17    22 1   
    31    18    19 1   
    32    19    20 2   
    33    19    36 1   
    34    20    21 1   
    35    21    22 1   
    36    21    23 1   
    37    22    25 2   
    38    23    24 2   
    39    23    37 1   
    40    24    25 1   
    41    24    39 1   
    42    25    38 1   
@<TRIPOS>SUBSTRUCTURE
     1 QUP         1 TEMP              0 ****  ****    0 ROOT
