@<TRIPOS>MOLECULE
QUP
   39    42     1     0     0
SMALL
No Charge or Current Charge


@<TRIPOS>ATOM
      1 Cl          -5.3000    -1.2640     1.8980 cl         1 QUP      -0.190000
      2 C19         -4.3310    -0.6590     0.5610 ca         1 QUP       0.120000
      3 C18         -2.9700    -0.3800     0.7520 ca         1 QUP      -0.074000
      4 C21         -4.9200    -0.4600    -0.6970 ca         1 QUP      -0.086000
      5 C22         -4.1460     0.0240    -1.7660 ca         1 QUP      -0.098000
      6 C23         -2.7780     0.3110    -1.5850 ca         1 QUP      -0.048300
      7 C24         -1.9610     0.8440    -2.7600 c3         1 QUP      -0.051800
      8 C17         -2.1880     0.1060    -0.3140 ca         1 QUP      -0.005200
      9 N16         -0.8360     0.3690    -0.0960 na         1 QUP       0.152200
     10 C12         -0.3550     1.5100     0.5390 cc         1 QUP      -0.246600
     11 C13         -1.0870     2.6760     1.0850 c          1 QUP       0.643700
     12 N15         -0.3340     3.6410     1.6490 nt         1 QUP      -0.603000
     13 O14         -2.2980     2.8050     1.0530 o          1 QUP      -0.597100
     14 C11          1.0140     1.3340     0.5470 cd         1 QUP      -0.101000
     15 C25          0.1630    -0.5120    -0.4810 cc         1 QUP      -0.087000
     16 C1           1.3320     0.0950    -0.0780 cd         1 QUP      -0.265500
     17 C2           2.6220    -0.5410    -0.3190 cd         1 QUP       0.303500
     18 N10          2.6120    -1.7150    -0.9520 nc         1 QUP      -0.228000
     19 C9           3.8400    -2.3200    -1.1860 cc         1 QUP       0.098900
     20 N8           5.0770    -1.9120    -0.8740 nd         1 QUP      -0.267800
     21 N7           5.0570    -0.7060    -0.2260 na         1 QUP       0.275900
     22 C3           3.9040    -0.0180     0.0620 cd         1 QUP      -0.231000
     23 C6           6.2100    -0.0710     0.2090 cd         1 QUP      -0.179100
     24 C5           5.7370     1.0790     0.8030 cc         1 QUP      -0.242000
     25 C4           4.3160     1.1210     0.7180 cc         1 QUP      -0.192000
     26 H18         -2.5220    -0.5380     1.7300 ha         1 QUP       0.145000
     27 H21         -5.9750    -0.6780    -0.8430 ha         1 QUP       0.133000
     28 H22         -4.6140     0.1760    -2.7360 ha         1 QUP       0.122000
     29 H241        -1.4460     1.7740    -2.4930 hc         1 QUP       0.050700
     30 H242        -1.2020     0.1170    -3.0730 hc         1 QUP       0.050700
     31 H243        -2.5910     1.0580    -3.6310 hc         1 QUP       0.050700
     32 H25         -0.0430    -1.4490    -0.9850 h4         1 QUP       0.173000
     33 H11          1.7090     2.0460     0.9630 ha         1 QUP       0.138000
     34 H151         0.6680     3.5450     1.6820 hn         1 QUP       0.318000
     35 H152        -0.7870     4.4550     2.0350 hn         1 QUP       0.318000
     36 H9           3.7420    -3.2670    -1.7030 h5         1 QUP       0.057100
     37 H6           7.2080    -0.4720     0.0680 h4         1 QUP       0.235000
     38 H4           3.7250     1.9330     1.1240 ha         1 QUP       0.202000
     39 H5           6.3470     1.8500     1.2740 ha         1 QUP       0.206000
@<TRIPOS>BOND
     1     1     2 1   
     2     2     3 ar  
     3     2     4 ar  
     4     3     8 ar  
     5     3    26 1   
     6     4     5 ar  
     7     4    27 1   
     8     5     6 ar  
     9     5    28 1   
    10     6     7 1   
    11     6     8 ar  
    12     7    29 1   
    13     7    30 1   
    14     7    31 1   
    15     8     9 1   
    16     9    10 1   
    17     9    15 1   
    18    10    11 1   
    19    10    14 2   
    20    11    12 1   
    21    11    13 2   
    22    12    34 1   
    23    12    35 1   
    24    14    16 1   
    25    14    33 1   
    26    15    16 2   
    27    15    32 1   
    28    16    17 1   
    29    17    18 2   
    30    17    22 1   
    31    18    19 1   
    32    19    20 2   
    33    19    36 1   
    34    20    21 1   
    35    21    22 1   
    36    21    23 1   
    37    22    25 2   
    38    23    24 2   
    39    23    37 1   
    40    24    25 1   
    41    24    39 1   
    42    25    38 1   
@<TRIPOS>SUBSTRUCTURE
     1 QUP         1 TEMP              0 ****  ****    0 ROOT
