@<TRIPOS>MOLECULE
QUQ
   45    48     1     0     0
SMALL
No Charge or Current Charge


@<TRIPOS>ATOM
      1 N1         -20.0700     4.9750    26.5800 ns         1 QUQ      -0.163000
      2 C4         -20.3340     5.0520    27.9390 c          1 QUQ       0.605100
      3 C5         -18.8440     5.1590    25.8860 ca         1 QUQ      -0.074000
      4 C6         -18.4010     4.1320    25.0270 ca         1 QUQ       0.298900
      5 C7         -16.4740     5.2840    24.4740 ca         1 QUQ       0.356900
      6 C8         -16.8360     6.3770    25.2850 ca         1 QUQ      -0.090000
      7 C10        -16.3830     8.6060    26.1580 ca         1 QUQ      -0.105000
      8 C13        -18.0510     6.3280    26.0060 ca         1 QUQ      -0.003000
      9 C15        -22.0760     3.0010    30.0330 ca         1 QUQ      -0.090000
     10 C17        -22.3550     3.5050    32.3970 ca         1 QUQ      -0.091000
     11 C20        -21.9720     6.8240    30.4900 c6         1 QUQ       0.156300
     12 C16        -22.2560     2.5680    31.3560 ca         1 QUQ       0.128000
     13 C18        -22.2720     4.8800    32.1140 ca         1 QUQ      -0.100000
     14 C19        -22.0940     5.3220    30.7880 ca         1 QUQ      -0.076300
     15 N          -22.2730     7.2620    29.0880 n          1 QUQ      -0.410800
     16 C1         -22.5430     8.6150    28.7880 c          1 QUQ       0.614100
     17 O          -23.0390     8.9340    27.7150 o          1 QUQ      -0.618100
     18 C          -22.1430     9.6920    29.8000 c3         1 QUQ      -0.173100
     19 C14        -21.9960     4.3770    29.7510 ca         1 QUQ      -0.049300
     20 C3         -21.8180     4.8800    28.3260 c6         1 QUQ      -0.113400
     21 C2         -22.5950     6.1940    28.0980 c6         1 QUQ       0.103000
     22 O1         -19.4480     5.2010    28.7740 o          1 QUQ      -0.560100
     23 C12        -18.4330     7.4470    26.7830 ca         1 QUQ      -0.080000
     24 C11        -17.5990     8.5760    26.8600 ca         1 QUQ      -0.093000
     25 C9         -16.0030     7.5100    25.3680 ca         1 QUQ      -0.093000
     26 N2         -17.2410     4.1790    24.3340 nb         1 QUQ      -0.655000
     27 H1         -20.8680     4.7630    25.9930 hn         1 QUQ       0.153000
     28 H2         -18.9930     3.2250    24.9010 h4         1 QUQ       0.016100
     29 H3         -15.5440     5.2970    23.9050 h4         1 QUQ       0.020100
     30 H4         -15.7410     9.4820    26.2200 ha         1 QUQ       0.115000
     31 H5         -22.0020     2.2690    29.2320 ha         1 QUQ       0.129000
     32 H6         -22.4920     3.1660    33.4200 ha         1 QUQ       0.133000
     33 H7         -20.9480     7.1370    30.7400 h1         1 QUQ       0.056700
     34 H8         -22.6460     7.3520    31.1770 h1         1 QUQ       0.056700
     35 H9         -22.3420     5.6010    32.9250 ha         1 QUQ       0.118000
     36 H10        -22.2490    10.7040    29.3950 hc         1 QUQ       0.064700
     37 H11        -22.7470     9.5740    30.7060 hc         1 QUQ       0.064700
     38 H12        -21.1250     9.5010    30.1570 hc         1 QUQ       0.064700
     39 H13        -22.2550     4.1830    27.5980 hc         1 QUQ       0.067700
     40 H14        -22.4000     6.5590    27.0790 h1         1 QUQ       0.070700
     41 H15        -23.6730     5.9840    28.1600 h1         1 QUQ       0.070700
     42 H16        -19.3750     7.4640    27.3220 ha         1 QUQ       0.142000
     43 H17        -17.8990     9.4320    27.4620 ha         1 QUQ       0.121000
     44 H18        -15.0650     7.5440    24.8160 ha         1 QUQ       0.115000
     45 Cl         -22.3570     0.8480    31.7110 cl         1 QUQ      -0.205000
@<TRIPOS>BOND
     1     1     2 1   
     2     1     3 1   
     3     1    27 1   
     4     2    20 1   
     5     2    22 2   
     6     3     4 ar  
     7     3     8 ar  
     8     4    26 ar  
     9     4    28 1   
    10     5     6 ar  
    11     5    26 ar  
    12     5    29 1   
    13     6     8 ar  
    14     6    25 ar  
    15     7    24 ar  
    16     7    25 ar  
    17     7    30 1   
    18     8    23 ar  
    19     9    12 ar  
    20     9    19 ar  
    21     9    31 1   
    22    10    12 ar  
    23    10    13 ar  
    24    10    32 1   
    25    11    14 1   
    26    11    15 1   
    27    11    33 1   
    28    11    34 1   
    29    12    45 1   
    30    13    14 ar  
    31    13    35 1   
    32    14    19 ar  
    33    15    16 1   
    34    15    21 1   
    35    16    17 2   
    36    16    18 1   
    37    18    36 1   
    38    18    37 1   
    39    18    38 1   
    40    19    20 1   
    41    20    21 1   
    42    20    39 1   
    43    21    40 1   
    44    21    41 1   
    45    23    24 ar  
    46    23    42 1   
    47    24    43 1   
    48    25    44 1   
@<TRIPOS>SUBSTRUCTURE
     1 QUQ         1 TEMP              0 ****  ****    0 ROOT
