@<TRIPOS>MOLECULE
QUQ
   45    48     1     0     0
SMALL
abcg2


@<TRIPOS>ATOM
      1 N1         -20.1910     5.0410    26.5830 ns         1 QUQ      -0.163000
      2 C4         -20.4770     5.2450    27.8970 c          1 QUQ       0.605100
      3 C5         -18.8870     5.1450    26.0340 ca         1 QUQ      -0.074000
      4 C6         -18.2810     4.0190    25.5340 ca         1 QUQ       0.298900
      5 C7         -16.3870     5.1470    24.9280 ca         1 QUQ       0.356900
      6 C8         -16.9010     6.3760    25.4040 ca         1 QUQ      -0.090000
      7 C10        -16.7070     8.7560    25.7610 ca         1 QUQ      -0.105000
      8 C13        -18.2080     6.3910    25.9680 ca         1 QUQ      -0.003000
      9 C15        -21.8980     3.1020    29.8740 ca         1 QUQ      -0.090000
     10 C17        -22.2920     3.4090    32.2380 ca         1 QUQ      -0.091000
     11 C20        -22.5840     6.7950    30.5610 c6         1 QUQ       0.156300
     12 C16        -22.0070     2.5870    31.1530 ca         1 QUQ       0.128000
     13 C18        -22.4680     4.7650    32.0140 ca         1 QUQ      -0.100000
     14 C19        -22.3590     5.3100    30.7340 ca         1 QUQ      -0.076300
     15 N          -22.3090     7.2570    29.2090 n          1 QUQ      -0.410800
     16 C1         -21.7730     8.4670    28.9090 c          1 QUQ       0.614100
     17 O          -21.6100     8.8320    27.7410 o          1 QUQ      -0.618100
     18 C          -21.3720     9.3600    30.0600 c3         1 QUQ      -0.173100
     19 C14        -22.0740     4.4690    29.6600 ca         1 QUQ      -0.049300
     20 C3         -21.9460     5.0260    28.2640 c6         1 QUQ      -0.113400
     21 C2         -22.7170     6.3500    28.1500 c6         1 QUQ       0.103000
     22 O1         -19.6410     5.6090    28.7120 o          1 QUQ      -0.560100
     23 C12        -18.7530     7.6210    26.4020 ca         1 QUQ      -0.080000
     24 C11        -18.0140     8.7730    26.2990 ca         1 QUQ      -0.093000
     25 C9         -16.1620     7.5790    25.3170 ca         1 QUQ      -0.093000
     26 N2         -17.0450     4.0100    24.9760 nb         1 QUQ      -0.655000
     27 H1         -20.8960     4.6000    26.0100 hn         1 QUQ       0.153000
     28 H2         -18.8010     3.0690    25.5780 h4         1 QUQ       0.016100
     29 H3         -15.3930     5.1290    24.4920 h4         1 QUQ       0.020100
     30 H4         -16.1440     9.6770    25.6970 ha         1 QUQ       0.115000
     31 H5         -21.6790     2.4480    29.0400 ha         1 QUQ       0.129000
     32 H6         -22.3750     2.9950    33.2330 ha         1 QUQ       0.133000
     33 H7         -21.9520     7.3290    31.2650 h1         1 QUQ       0.056700
     34 H8         -23.6250     7.0250    30.8240 h1         1 QUQ       0.056700
     35 H9         -22.6940     5.4140    32.8530 ha         1 QUQ       0.118000
     36 H10        -21.0070    10.2970    29.6480 hc         1 QUQ       0.064700
     37 H11        -22.2130     9.5600    30.7260 hc         1 QUQ       0.064700
     38 H12        -20.5790     8.8980    30.6520 hc         1 QUQ       0.064700
     39 H13        -22.3850     4.3220    27.5550 hc         1 QUQ       0.067700
     40 H14        -22.5380     6.8300    27.1940 h1         1 QUQ       0.070700
     41 H15        -23.7860     6.1400    28.2430 h1         1 QUQ       0.070700
     42 H16        -19.7520     7.6590    26.8120 ha         1 QUQ       0.142000
     43 H17        -18.4390     9.7110    26.6320 ha         1 QUQ       0.121000
     44 H18        -15.1660     7.5520    24.8910 ha         1 QUQ       0.115000
     45 CL         -21.7840     0.8680    31.4110 cl         1 QUQ      -0.205000
@<TRIPOS>BOND
     1     1     2 1   
     2     1     3 1   
     3     1    27 1   
     4     2    20 1   
     5     2    22 2   
     6     3     4 ar  
     7     3     8 ar  
     8     4    26 ar  
     9     4    28 1   
    10     5     6 ar  
    11     5    26 ar  
    12     5    29 1   
    13     6     8 ar  
    14     6    25 ar  
    15     7    24 ar  
    16     7    25 ar  
    17     7    30 1   
    18     8    23 ar  
    19     9    12 ar  
    20     9    19 ar  
    21     9    31 1   
    22    10    12 ar  
    23    10    13 ar  
    24    10    32 1   
    25    11    14 1   
    26    11    15 1   
    27    11    33 1   
    28    11    34 1   
    29    12    45 1   
    30    13    14 ar  
    31    13    35 1   
    32    14    19 ar  
    33    15    16 1   
    34    15    21 1   
    35    16    17 2   
    36    16    18 1   
    37    18    36 1   
    38    18    37 1   
    39    18    38 1   
    40    19    20 1   
    41    20    21 1   
    42    20    39 1   
    43    21    40 1   
    44    21    41 1   
    45    23    24 ar  
    46    23    42 1   
    47    24    43 1   
    48    25    44 1   
@<TRIPOS>SUBSTRUCTURE
     1 QUQ         1 TEMP              0 ****  ****    0 ROOT
