@<TRIPOS>MOLECULE
QUR
   34    36     1     0     0
SMALL
abcg2


@<TRIPOS>ATOM
      1 C18        -45.9960   -30.5470     3.1800 c5         1 QUR      -0.201700
      2 C17        -46.8360   -29.7950     4.2090 c5         1 QUR       0.109000
      3 C14        -52.3710   -30.5630     5.6590 c          1 QUR       0.684100
      4 C12        -50.4940   -29.3460     5.5990 ca         1 QUR       0.086100
      5 C10        -50.8900   -29.4220     6.9310 ca         1 QUR      -0.020400
      6 C19        -44.6140   -30.9910     3.6990 c          1 QUR       0.716000
      7 C01        -45.4770   -30.1310     0.6890 c3         1 QUR      -0.070100
      8 C02        -45.9200   -29.5400     2.0170 c5         1 QUR      -0.067700
      9 C03        -47.3300   -28.9460     1.9860 c5         1 QUR       0.096000
     10 C06        -49.3510   -28.6890     5.1930 ca         1 QUR      -0.081600
     11 C07        -48.6060   -28.0740     6.2100 ca         1 QUR      -0.080000
     12 C08        -49.0050   -28.1320     7.5430 ca         1 QUR      -0.108000
     13 C09        -50.1580   -28.8150     7.9340 ca         1 QUR      -0.106000
     14 N04        -47.7780   -29.0200     3.3810 n          1 QUR      -0.392800
     15 N11        -52.0550   -30.1800     6.9280 ns         1 QUR      -0.527600
     16 O13        -51.3950   -30.0410     4.8210 os         1 QUR      -0.270200
     17 O20        -44.2890   -32.1890     3.4920 o          1 QUR      -0.727000
     18 O21        -43.9120   -30.1190     4.2710 o          1 QUR      -0.727000
     19 H181       -46.5420   -31.4300     2.8410 hc         1 QUR       0.048700
     20 H172       -46.1990   -29.1290     4.7910 h1         1 QUR       0.052700
     21 H171       -47.3730   -30.4540     4.8880 h1         1 QUR       0.052700
     22 H012       -44.4630   -30.5300     0.7600 hc         1 QUR       0.029367
     23 H011       -46.1420   -30.9430     0.3860 hc         1 QUR       0.029367
     24 H013       -45.4840   -29.3750    -0.0990 hc         1 QUR       0.029367
     25 H021       -45.2210   -28.7530     2.3150 hc         1 QUR       0.067700
     26 H032       -47.3540   -27.9160     1.6290 h1         1 QUR       0.040200
     27 H031       -47.9980   -29.5370     1.3520 h1         1 QUR       0.040200
     28 H071       -47.7050   -27.5380     5.9460 ha         1 QUR       0.138000
     29 H081       -48.4050   -27.6370     8.2950 ha         1 QUR       0.118000
     30 H091       -50.4640   -28.8690     8.9700 ha         1 QUR       0.117000
     31 H111       -52.6110   -30.4340     7.7310 hn         1 QUR       0.467000
     32 C05        -48.9880   -28.5790     3.7420 c          1 QUR       0.607700
     33 O16        -49.7900   -28.0840     2.9390 o          1 QUR      -0.629100
     34 O15        -53.2960   -31.2220     5.2510 o          1 QUR      -0.521000
@<TRIPOS>BOND
     1     1     2 1   
     2     1     6 1   
     3     1     8 1   
     4     1    19 1   
     5     2    14 1   
     6     2    20 1   
     7     2    21 1   
     8     3    15 1   
     9     3    16 1   
    10     3    34 2   
    11     4     5 ar  
    12     4    10 ar  
    13     4    16 1   
    14     5    13 ar  
    15     5    15 1   
    16     6    17 1   
    17     6    18 1   
    18     7     8 1   
    19     7    22 1   
    20     7    23 1   
    21     7    24 1   
    22     8     9 1   
    23     8    25 1   
    24     9    14 1   
    25     9    26 1   
    26     9    27 1   
    27    10    11 ar  
    28    10    32 1   
    29    11    12 ar  
    30    11    28 1   
    31    12    13 ar  
    32    12    29 1   
    33    13    30 1   
    34    14    32 1   
    35    15    31 1   
    36    32    33 2   
@<TRIPOS>SUBSTRUCTURE
     1 QUR         1 TEMP              0 ****  ****    0 ROOT
