@<TRIPOS>MOLECULE
QUR
   34    36     1     0     0
SMALL
No Charge or Current Charge


@<TRIPOS>ATOM
      1 C18        -45.9100   -30.5810     3.0610 c5         1 QUR      -0.201700
      2 C17        -46.8400   -29.9670     4.1410 c5         1 QUR       0.109000
      3 C14        -52.7220   -30.2960     5.8490 c          1 QUR       0.684100
      4 C12        -50.6680   -29.3580     5.6680 ca         1 QUR       0.086100
      5 C10        -50.9890   -29.3220     7.0050 ca         1 QUR      -0.020400
      6 C19        -44.5200   -30.9030     3.6670 c          1 QUR       0.716000
      7 C01        -45.1950   -29.8310     0.6630 c3         1 QUR      -0.070100
      8 C02        -45.8540   -29.4400     2.0030 c5         1 QUR      -0.067700
      9 C03        -47.3640   -29.0980     1.8990 c5         1 QUR       0.096000
     10 C06        -49.4400   -28.8810     5.1840 ca         1 QUR      -0.081600
     11 C07        -48.5590   -28.3220     6.1510 ca         1 QUR      -0.080000
     12 C08        -48.9020   -28.2870     7.5290 ca         1 QUR      -0.108000
     13 C09        -50.1380   -28.8000     7.9790 ca         1 QUR      -0.106000
     14 N04        -47.7880   -29.1810     3.3140 n          1 QUR      -0.392800
     15 N11        -52.2490   -29.9000     7.0710 ns         1 QUR      -0.527600
     16 O13        -51.7070   -29.9470     4.9810 os         1 QUR      -0.270200
     17 O20        -44.1190   -32.0550     3.6150 o          1 QUR      -0.727000
     18 O21        -43.8580   -30.0120     4.1800 o          1 QUR      -0.727000
     19 H181       -46.3490   -31.4940     2.6420 hc         1 QUR       0.048700
     20 H172       -46.2840   -29.3090     4.8200 h1         1 QUR       0.052700
     21 H171       -47.3430   -30.7410     4.7370 h1         1 QUR       0.052700
     22 H012       -44.1390   -30.0900     0.8030 hc         1 QUR       0.029367
     23 H011       -45.6960   -30.6960     0.2110 hc         1 QUR       0.029367
     24 H013       -45.2440   -29.0030    -0.0540 hc         1 QUR       0.029367
     25 H021       -45.3030   -28.5730     2.3890 hc         1 QUR       0.067700
     26 H032       -47.5300   -28.0980     1.4770 h1         1 QUR       0.040200
     27 H031       -47.9060   -29.8320     1.2880 h1         1 QUR       0.040200
     28 H071       -47.6150   -27.8830     5.8380 ha         1 QUR       0.138000
     29 H081       -48.2080   -27.8530     8.2450 ha         1 QUR       0.118000
     30 H091       -50.4150   -28.7820     9.0300 ha         1 QUR       0.117000
     31 H111       -52.7840   -30.0310     7.9240 hn         1 QUR       0.467000
     32 C05        -49.1180   -28.9200     3.7080 c          1 QUR       0.607700
     33 O16        -49.9700   -28.6500     2.8670 o          1 QUR      -0.629100
     34 O15        -53.7880   -30.8310     5.5930 o          1 QUR      -0.521000
@<TRIPOS>BOND
     1     1     2 1   
     2     1     6 1   
     3     1     8 1   
     4     1    19 1   
     5     2    14 1   
     6     2    20 1   
     7     2    21 1   
     8     3    15 1   
     9     3    16 1   
    10     3    34 2   
    11     4     5 ar  
    12     4    10 ar  
    13     4    16 1   
    14     5    13 ar  
    15     5    15 1   
    16     6    17 1   
    17     6    18 1   
    18     7     8 1   
    19     7    22 1   
    20     7    23 1   
    21     7    24 1   
    22     8     9 1   
    23     8    25 1   
    24     9    14 1   
    25     9    26 1   
    26     9    27 1   
    27    10    11 ar  
    28    10    32 1   
    29    11    12 ar  
    30    11    28 1   
    31    12    13 ar  
    32    12    29 1   
    33    13    30 1   
    34    14    32 1   
    35    15    31 1   
    36    32    33 2   
@<TRIPOS>SUBSTRUCTURE
     1 QUR         1 TEMP              0 ****  ****    0 ROOT
