@<TRIPOS>MOLECULE
QUS
   19    19     1     0     0
SMALL
No Charge or Current Charge


@<TRIPOS>ATOM
      1 C01         31.4260    53.9360     6.7570 c          1 QUS       0.691000
      2 C02         31.3290    53.5340     5.2350 c3         1 QUS      -0.023500
      3 C03         32.0740    54.5990     4.3850 c3         1 QUS       0.104000
      4 C04         33.3680    53.6490     2.4210 c          1 QUS       0.584000
      5 C05         32.1960    54.7670     0.8030 c          1 QUS       0.696100
      6 NP3         29.9320    53.2510     4.7090 n8         1 QUS      -1.019200
      7 N14         32.2340    54.2260     2.9660 n          1 QUS      -0.191300
      8 N15         33.2580    53.9820     1.1250 ns         1 QUS      -0.496500
      9 O16         30.8670    54.9600     7.1230 o          1 QUS      -0.721000
     10 O17         31.9870    53.1660     7.5230 o          1 QUS      -0.721000
     11 O20         31.5120    54.9650     1.9850 os         1 QUS      -0.219200
     12 H02         31.8990    52.5990     5.1360 h1         1 QUS       0.059700
     13 H031        33.0710    54.7640     4.8160 h1         1 QUS       0.085200
     14 H032        31.5350    55.5530     4.4410 h1         1 QUS       0.085200
     15 HP31        29.3360    54.0690     4.8930 hn         1 QUS       0.396500
     16 HP32        29.4960    52.5150     5.2810 hn         1 QUS       0.396500
     17 H15         33.9470    53.7140     0.4410 hn         1 QUS       0.352500
     18 O18         34.2710    53.0410     2.9710 o          1 QUS      -0.523000
     19 O19         31.9170    55.2060    -0.3020 o          1 QUS      -0.536000
@<TRIPOS>BOND
     1     1     2 1   
     2     1     9 1   
     3     1    10 1   
     4     2     3 1   
     5     2     6 1   
     6     2    12 1   
     7     3     7 1   
     8     3    13 1   
     9     3    14 1   
    10     4     7 1   
    11     4     8 1   
    12     4    18 2   
    13     5     8 1   
    14     5    11 1   
    15     5    19 2   
    16     6    15 1   
    17     6    16 1   
    18     7    11 1   
    19     8    17 1   
@<TRIPOS>SUBSTRUCTURE
     1 QUS         1 TEMP              0 ****  ****    0 ROOT
