@<TRIPOS>MOLECULE
QUS
   19    19     1     0     0
SMALL
abcg2


@<TRIPOS>ATOM
      1 C01         31.1210    53.8850     6.5330 c          1 QUS       0.691000
      2 C02         31.5780    53.5990     5.0730 c3         1 QUS      -0.023500
      3 C03         32.4380    54.7950     4.6360 c3         1 QUS       0.104000
      4 C04         33.2860    53.6380     2.5880 c          1 QUS       0.584000
      5 C05         31.8550    54.7230     1.1930 c          1 QUS       0.696100
      6 NP3         30.5160    53.3530     4.1030 n8         1 QUS      -1.019200
      7 N14         32.8320    54.7730     3.2280 n          1 QUS      -0.191300
      8 N15         32.7390    53.6900     1.3180 ns         1 QUS      -0.496500
      9 O16         29.9300    54.2370     6.7040 o          1 QUS      -0.721000
     10 O17         32.0100    53.7690     7.4140 o          1 QUS      -0.721000
     11 O20         31.8710    55.4010     2.3740 os         1 QUS      -0.219200
     12 H02         32.2180    52.7160     5.0980 h1         1 QUS       0.059700
     13 H031        33.3500    54.8400     5.2280 h1         1 QUS       0.085200
     14 H032        31.9050    55.7350     4.7720 h1         1 QUS       0.085200
     15 HP31        29.7720    54.0260     4.2640 hn         1 QUS       0.396500
     16 HP32        30.1050    52.4440     4.2890 hn         1 QUS       0.396500
     17 H15         32.9260    53.0180     0.5890 hn         1 QUS       0.352500
     18 O18         34.0350    52.8030     3.0460 o          1 QUS      -0.523000
     19 O19         31.1700    55.0520     0.2600 o          1 QUS      -0.536000
@<TRIPOS>BOND
     1     1     2 1   
     2     1     9 1   
     3     1    10 1   
     4     2     3 1   
     5     2     6 1   
     6     2    12 1   
     7     3     7 1   
     8     3    13 1   
     9     3    14 1   
    10     4     7 1   
    11     4     8 1   
    12     4    18 2   
    13     5     8 1   
    14     5    11 1   
    15     5    19 2   
    16     6    15 1   
    17     6    16 1   
    18     7    11 1   
    19     8    17 1   
@<TRIPOS>SUBSTRUCTURE
     1 QUS         1 TEMP              0 ****  ****    0 ROOT
