@<TRIPOS>MOLECULE
QUU
   57    61     1     0     0
SMALL
No Charge or Current Charge


@<TRIPOS>ATOM
      1 N1         -79.3590   -21.5630    88.5620 nc         1 QUU      -0.528100
      2 N3         -86.0940   -19.5400    88.7080 ns         1 QUU      -0.141000
      3 C4         -80.9770   -20.3370    85.5320 ca         1 QUU       0.469900
      4 C5         -83.3120   -20.7450    86.4550 ca         1 QUU       0.288000
      5 C6         -84.1920   -19.8730    87.1180 ca         1 QUU      -0.129000
      6 C7         -85.1830   -20.3670    87.9930 ca         1 QUU      -0.021000
      7 C8         -86.3550   -18.1740    88.6640 c          1 QUU       0.618700
      8 C10        -87.7380   -16.2940    89.6420 ca         1 QUU      -0.007000
      9 C13        -89.3770   -16.6600    91.4030 ca         1 QUU      -0.037000
     10 C15        -88.0870   -18.5340    90.5290 ca         1 QUU      -0.060000
     11 C17        -84.4160   -22.6360    87.5190 ca         1 QUU      -0.083000
     12 C20        -79.0620   -20.0900    84.2680 cp         1 QUU       0.273500
     13 C21        -78.4260   -19.6890    82.9680 cp         1 QUU      -0.202500
     14 C22        -77.0240   -19.7780    82.7550 ca         1 QUU      -0.031000
     15 C24        -77.3550   -18.9180    80.5170 ca         1 QUU       0.347900
     16 N          -78.3490   -21.3780    87.6120 na         1 QUU      -0.037100
     17 C          -76.9240   -21.6400    87.8720 c3         1 QUU       0.089900
     18 O          -85.7850   -17.4060    87.8970 o          1 QUU      -0.572100
     19 C1         -80.4810   -21.2090    87.9170 cd         1 QUU       0.402800
     20 C11        -88.7110   -15.7790    90.5260 ca         1 QUU      -0.197300
     21 C12        -89.0480   -14.2840    90.5050 c3         1 QUU       0.346300
     22 C14        -89.0620   -18.0270    91.4030 ca         1 QUU      -0.122000
     23 C16        -85.2760   -21.7550    88.1920 ca         1 QUU      -0.155000
     24 C18        -83.4340   -22.1460    86.6390 ca         1 QUU      -0.087300
     25 C19        -82.5590   -23.1510    85.8880 c3         1 QUU      -0.044800
     26 C2         -78.8400   -20.9070    86.4070 ca         1 QUU       0.165500
     27 C23        -76.4930   -19.3870    81.5170 ca         1 QUU      -0.181000
     28 C25        -79.2050   -19.1990    81.8850 ca         1 QUU       0.378900
     29 C3         -80.1840   -20.8060    86.5690 ca         1 QUU      -0.383900
     30 C9         -87.4110   -17.6710    89.6320 ca         1 QUU      -0.159600
     31 F          -89.9040   -13.9890    89.5020 f          1 QUU      -0.109667
     32 F1         -87.9480   -13.5180    90.3240 f          1 QUU      -0.109667
     33 F2         -89.6260   -13.8620    91.6540 f          1 QUU      -0.109667
     34 N2         -82.3440   -20.1860    85.6170 nu         1 QUU      -0.953900
     35 N4         -80.4090   -19.9610    84.3770 nb         1 QUU      -0.314000
     36 N5         -78.6910   -18.8220    80.6900 nb         1 QUU      -0.677000
     37 N6         -78.2500   -20.5540    85.2500 nb         1 QUU      -0.238000
     38 H6         -86.6580   -20.0450    89.3770 hn         1 QUU       0.154000
     39 H5         -84.0700   -18.8090    86.9560 ha         1 QUU       0.161000
     40 H7         -87.2330   -15.6160    88.9550 ha         1 QUU       0.154000
     41 H8         -90.1410   -16.2940    92.0860 ha         1 QUU       0.137000
     42 H10        -87.8740   -19.6000    90.5630 ha         1 QUU       0.118000
     43 H12        -84.5210   -23.7080    87.6770 ha         1 QUU       0.121000
     44 H16        -76.3540   -20.1420    83.5310 ha         1 QUU       0.139000
     45 H18        -76.9670   -18.6090    79.5470 h4         1 QUU       0.018100
     46 H1         -76.7940   -22.0340    88.8870 h1         1 QUU       0.057367
     47 H2         -76.5480   -22.3740    87.1480 h1         1 QUU       0.057367
     48 H          -76.3560   -20.7080    87.7700 h1         1 QUU       0.057367
     49 H3         -81.4260   -21.2490    88.4450 h4         1 QUU       0.053800
     50 H9         -89.5780   -18.6990    92.0840 ha         1 QUU       0.128000
     51 H11        -86.0290   -22.1590    88.8660 ha         1 QUU       0.115000
     52 H13        -81.6070   -23.3170    86.4050 hc         1 QUU       0.050700
     53 H15        -83.0560   -24.1240    85.7980 hc         1 QUU       0.050700
     54 H14        -82.3360   -22.8150    84.8680 hc         1 QUU       0.050700
     55 H17        -75.4250   -19.4460    81.3280 ha         1 QUU       0.124000
     56 H19        -80.2870   -19.1020    81.9720 h4         1 QUU       0.039100
     57 H4         -82.7000   -19.4900    84.9630 hn         1 QUU       0.521000
@<TRIPOS>BOND
     1     1    16 1   
     2     1    19 2   
     3     2     6 1   
     4     2     7 1   
     5     2    38 1   
     6     3    29 ar  
     7     3    34 1   
     8     3    35 ar  
     9     4     5 ar  
    10     4    24 ar  
    11     4    34 1   
    12     5     6 ar  
    13     5    39 1   
    14     6    23 ar  
    15     7    18 2   
    16     7    30 1   
    17     8    20 ar  
    18     8    30 ar  
    19     8    40 1   
    20     9    20 ar  
    21     9    22 ar  
    22     9    41 1   
    23    10    22 ar  
    24    10    30 ar  
    25    10    42 1   
    26    11    23 ar  
    27    11    24 ar  
    28    11    43 1   
    29    12    13 1   
    30    12    35 ar  
    31    12    37 ar  
    32    13    14 ar  
    33    13    28 ar  
    34    14    27 ar  
    35    14    44 1   
    36    15    27 ar  
    37    15    36 ar  
    38    15    45 1   
    39    16    17 1   
    40    16    26 1   
    41    17    46 1   
    42    17    47 1   
    43    17    48 1   
    44    19    29 1   
    45    19    49 1   
    46    20    21 1   
    47    21    31 1   
    48    21    32 1   
    49    21    33 1   
    50    22    50 1   
    51    23    51 1   
    52    24    25 1   
    53    25    52 1   
    54    25    53 1   
    55    25    54 1   
    56    26    29 ar  
    57    26    37 ar  
    58    27    55 1   
    59    28    36 ar  
    60    28    56 1   
    61    34    57 1   
@<TRIPOS>SUBSTRUCTURE
     1 QUU         1 TEMP              0 ****  ****    0 ROOT
