@<TRIPOS>MOLECULE
QUU
   57    61     1     0     0
SMALL
abcg2


@<TRIPOS>ATOM
      1 N1         -79.8070   -21.6520    88.5180 nc         1 QUU      -0.528100
      2 N3         -85.9110   -19.7440    88.6800 ns         1 QUU      -0.141000
      3 C4         -81.3320   -20.6130    85.3520 ca         1 QUU       0.469900
      4 C5         -83.5850   -21.1820    86.1560 ca         1 QUU       0.288000
      5 C6         -84.2760   -20.2300    86.8980 ca         1 QUU      -0.129000
      6 C7         -85.1840   -20.6370    87.8740 ca         1 QUU      -0.021000
      7 C8         -86.0220   -18.3930    88.5620 c          1 QUU       0.618700
      8 C10        -87.4320   -16.5020    89.2970 ca         1 QUU      -0.007000
      9 C13        -88.3500   -16.3320    91.5240 ca         1 QUU      -0.037000
     10 C15        -87.0030   -18.2350    90.9120 ca         1 QUU      -0.060000
     11 C17        -84.6760   -22.9360    87.3390 ca         1 QUU      -0.083000
     12 C20        -79.2870   -19.9800    84.4460 cp         1 QUU       0.273500
     13 C21        -78.5780   -19.3970    83.2810 cp         1 QUU      -0.202500
     14 C22        -77.1860   -19.2980    83.2520 ca         1 QUU      -0.031000
     15 C24        -77.3640   -18.2860    81.0970 ca         1 QUU       0.347900
     16 N          -78.7920   -21.2200    87.7150 na         1 QUU      -0.037100
     17 C          -77.4160   -21.2240    88.1670 c3         1 QUU       0.089900
     18 O          -85.5070   -17.7410    87.6580 o          1 QUU      -0.572100
     19 C1         -80.9270   -21.5210    87.8300 cd         1 QUU       0.402800
     20 C11        -88.1860   -15.8170    90.2420 ca         1 QUU      -0.197300
     21 C12        -88.8230   -14.5170    89.8410 c3         1 QUU       0.346300
     22 C14        -87.7500   -17.5410    91.8550 ca         1 QUU      -0.122000
     23 C16        -85.3720   -22.0050    88.0910 ca         1 QUU      -0.155000
     24 C18        -83.7700   -22.5540    86.3480 ca         1 QUU      -0.087300
     25 C19        -83.0220   -23.5720    85.5360 c3         1 QUU      -0.044800
     26 C2         -79.2630   -20.8110    86.5160 ca         1 QUU       0.165500
     27 C23        -76.5700   -18.7370    82.1450 ca         1 QUU      -0.181000
     28 C25        -79.2810   -18.9140    82.1740 ca         1 QUU       0.378900
     29 C3         -80.6600   -20.9930    86.5390 ca         1 QUU      -0.383900
     30 C9         -86.8430   -17.7210    89.6230 ca         1 QUU      -0.159600
     31 F          -89.7490   -14.6880    88.8650 f          1 QUU      -0.109667
     32 F1         -87.9170   -13.6400    89.3460 f          1 QUU      -0.109667
     33 F2         -89.4460   -13.8990    90.8620 f          1 QUU      -0.109667
     34 N2         -82.6620   -20.7170    85.1720 nu         1 QUU      -0.953900
     35 N4         -80.6200   -20.1120    84.3320 nb         1 QUU      -0.314000
     36 N5         -78.6980   -18.3690    81.1050 nb         1 QUU      -0.677000
     37 N6         -78.5450   -20.3130    85.5020 nb         1 QUU      -0.238000
     38 H6         -86.4650   -20.1810    89.4000 hn         1 QUU       0.154000
     39 H5         -84.0970   -19.1850    86.7160 ha         1 QUU       0.161000
     40 H7         -87.2940   -16.1010    88.3020 ha         1 QUU       0.154000
     41 H8         -88.9320   -15.7950    92.2600 ha         1 QUU       0.137000
     42 H10        -86.5250   -19.1620    91.2020 ha         1 QUU       0.118000
     43 H12        -84.8430   -23.9910    87.5190 ha         1 QUU       0.121000
     44 H16        -76.6040   -19.6580    84.0890 ha         1 QUU       0.139000
     45 H18        -76.9120   -17.8410    80.2170 h4         1 QUU       0.018100
     46 H1         -77.4000   -21.6320    89.1730 h1         1 QUU       0.057367
     47 H2         -76.8050   -21.8440    87.5100 h1         1 QUU       0.057367
     48 H          -77.0170   -20.2090    88.1750 h1         1 QUU       0.057367
     49 H3         -81.8660   -21.8040    88.2740 h4         1 QUU       0.053800
     50 H9         -87.8590   -17.9410    92.8540 ha         1 QUU       0.128000
     51 H11        -86.0710   -22.3350    88.8510 ha         1 QUU       0.115000
     52 H13        -81.9600   -23.5840    85.7960 hc         1 QUU       0.050700
     53 H15        -83.4220   -24.5700    85.7130 hc         1 QUU       0.050700
     54 H14        -83.0880   -23.3520    84.4690 hc         1 QUU       0.050700
     55 H17        -75.4940   -18.6480    82.0900 ha         1 QUU       0.124000
     56 H19        -80.3620   -18.9710    82.1640 h4         1 QUU       0.039100
     57 H4         -83.0220   -20.3300    84.3110 hn         1 QUU       0.521000
@<TRIPOS>BOND
     1     1    16 1   
     2     1    19 2   
     3     2     6 1   
     4     2     7 1   
     5     2    38 1   
     6     3    29 ar  
     7     3    34 1   
     8     3    35 ar  
     9     4     5 ar  
    10     4    24 ar  
    11     4    34 1   
    12     5     6 ar  
    13     5    39 1   
    14     6    23 ar  
    15     7    18 2   
    16     7    30 1   
    17     8    20 ar  
    18     8    30 ar  
    19     8    40 1   
    20     9    20 ar  
    21     9    22 ar  
    22     9    41 1   
    23    10    22 ar  
    24    10    30 ar  
    25    10    42 1   
    26    11    23 ar  
    27    11    24 ar  
    28    11    43 1   
    29    12    13 1   
    30    12    35 ar  
    31    12    37 ar  
    32    13    14 ar  
    33    13    28 ar  
    34    14    27 ar  
    35    14    44 1   
    36    15    27 ar  
    37    15    36 ar  
    38    15    45 1   
    39    16    17 1   
    40    16    26 1   
    41    17    46 1   
    42    17    47 1   
    43    17    48 1   
    44    19    29 1   
    45    19    49 1   
    46    20    21 1   
    47    21    31 1   
    48    21    32 1   
    49    21    33 1   
    50    22    50 1   
    51    23    51 1   
    52    24    25 1   
    53    25    52 1   
    54    25    53 1   
    55    25    54 1   
    56    26    29 ar  
    57    26    37 ar  
    58    27    55 1   
    59    28    36 ar  
    60    28    56 1   
    61    34    57 1   
@<TRIPOS>SUBSTRUCTURE
     1 QUU         1 TEMP              0 ****  ****    0 ROOT
