@<TRIPOS>MOLECULE
QUV
  180   182     1     0     0
SMALL
No Charge or Current Charge


@<TRIPOS>ATOM
      1 C1          -6.5710     4.9760     0.8100 c3         1 QUV       0.145600
      2 C2          -6.2910     3.4470     0.9130 c3         1 QUV       0.090700
      3 N2          -5.2010     3.0160     0.0220 ns         1 QUV      -0.487900
      4 C3          -7.5940     2.5940     0.7110 c3         1 QUV       0.127300
      5 O3          -8.5270     2.9330     1.7610 oh         1 QUV      -0.640000
      6 C4          -7.3810     1.0320     0.6650 c3         1 QUV       0.130300
      7 O4          -6.5790     0.6660    -0.4730 oh         1 QUV      -0.667000
      8 C5          -8.7110     0.2300     0.5850 c3         1 QUV      -0.104400
      9 C6          -8.5390    -1.3100     0.6290 c3         1 QUV      -0.075400
     10 C7          -9.8870    -2.0650     0.6360 c3         1 QUV      -0.074400
     11 C8          -9.7200    -3.6000     0.6750 c3         1 QUV      -0.074400
     12 C9         -11.0680    -4.3540     0.6790 c3         1 QUV      -0.073400
     13 C10        -10.9000    -5.8890     0.7130 c3         1 QUV      -0.074400
     14 C11        -12.2480    -6.6440     0.7140 c3         1 QUV      -0.073400
     15 C12        -12.0790    -8.1790     0.7450 c3         1 QUV      -0.074400
     16 C13        -13.4260    -8.9350     0.7420 c3         1 QUV      -0.074400
     17 C14        -13.2570   -10.4700     0.7700 c3         1 QUV      -0.074400
     18 C15        -14.6030   -11.2270     0.7630 c3         1 QUV      -0.074400
     19 C16        -14.4330   -12.7620     0.7900 c3         1 QUV      -0.075400
     20 C17        -15.7790   -13.5190     0.7820 c3         1 QUV      -0.074400
     21 C18        -15.6100   -15.0510     0.8090 c3         1 QUV      -0.088100
     22 C1A         -7.0140     6.7060    -0.8450 c6         1 QUV       0.358300
     23 O1A         -6.9840     5.3010    -0.5330 os         1 QUV      -0.467000
     24 C2A         -7.8070     6.9740    -2.1690 c6         1 QUV       0.116300
     25 O2A         -9.1170     6.3540    -2.1460 oh         1 QUV      -0.712000
     26 C3A         -7.0050     6.4710    -3.4090 c6         1 QUV       0.137300
     27 O3A         -7.6900     6.8440    -4.6210 oh         1 QUV      -0.669000
     28 C4A         -5.5540     7.0350    -3.4070 c6         1 QUV       0.153300
     29 O4A         -5.5870     8.4560    -3.6510 oh         1 QUV      -0.709000
     30 C5M         -4.8890     6.6750    -2.0420 c6         1 QUV       0.151300
     31 C6A         -3.4370     7.2240    -1.9270 c3         1 QUV       0.131000
     32 O6A         -5.6610     7.2090    -0.9340 os         1 QUV      -0.466000
     33 CAA         -3.9080     3.4750     0.0420 c          1 QUV       0.604100
     34 OAA         -3.5360     4.3840     0.7710 o          1 QUV      -0.662100
     35 CAB         -2.9570     2.7920    -0.9430 c3         1 QUV      -0.161400
     36 CAC         -1.9070     1.9330    -0.1980 c3         1 QUV      -0.067400
     37 CAD         -0.6630     1.6050    -1.0510 c3         1 QUV      -0.075400
     38 CAE          0.4230     0.8550    -0.2500 c3         1 QUV      -0.075400
     39 CAF          1.7420     0.6820    -1.0330 c3         1 QUV      -0.073400
     40 CAG          2.8620     0.0420    -0.1850 c3         1 QUV      -0.073400
     41 CAH          4.2040    -0.0640    -0.9400 c3         1 QUV      -0.075400
     42 CAI          5.3300    -0.6850    -0.0850 c3         1 QUV      -0.073400
     43 CAJ          6.6740    -0.7850    -0.8380 c3         1 QUV      -0.075400
     44 CAK          7.8010    -1.4050     0.0170 c3         1 QUV      -0.073400
     45 CAL          9.1460    -1.5040    -0.7360 c3         1 QUV      -0.074400
     46 CAM         10.2730    -2.1250     0.1180 c3         1 QUV      -0.074400
     47 CAN         11.6180    -2.2230    -0.6340 c3         1 QUV      -0.074400
     48 CAO         12.7440    -2.8450     0.2200 c3         1 QUV      -0.074400
     49 CAP         14.0900    -2.9420    -0.5330 c3         1 QUV      -0.074400
     50 CAQ         15.2150    -3.5650     0.3210 c3         1 QUV      -0.074400
     51 CAR         16.5610    -3.6610    -0.4310 c3         1 QUV      -0.074400
     52 CAS         17.6870    -4.2840     0.4230 c3         1 QUV      -0.074400
     53 CAT         19.0330    -4.3790    -0.3280 c3         1 QUV      -0.074400
     54 CAU         20.1590    -5.0030     0.5250 c3         1 QUV      -0.074400
     55 CAV         21.5060    -5.0950    -0.2250 c3         1 QUV      -0.074400
     56 CAW         22.6310    -5.7200     0.6280 c3         1 QUV      -0.074400
     57 CAX         23.9780    -5.8110    -0.1220 c3         1 QUV      -0.075400
     58 CAY         25.1040    -6.4350     0.7320 c3         1 QUV      -0.074400
     59 CAZ         26.4490    -6.5250    -0.0160 c3         1 QUV      -0.088100
     60 NAZ         -2.6370     6.5140    -0.9200 ns         1 QUV      -0.538900
     61 CCI         -1.2770     6.3540    -0.9880 c          1 QUV       0.659100
     62 NCJ         -0.7980     5.4930    -0.0180 ns         1 QUV      -0.179000
     63 OCK         -0.5980     6.9210    -1.8300 o          1 QUV      -0.635100
     64 CCL          0.7630     4.2760     1.4420 ca         1 QUV      -0.064000
     65 CCM         -0.2100     4.1870     2.4670 ca         1 QUV      -0.091000
     66 CCN          0.0750     3.5140     3.6670 ca         1 QUV      -0.118000
     67 CCO          1.3320     2.9240     3.8650 ca         1 QUV      -0.104000
     68 CCP          2.3090     3.0100     2.8630 ca         1 QUV      -0.106000
     69 CCQ          2.0320     3.6820     1.6570 ca         1 QUV      -0.019000
     70 CCR          3.0230     3.7490     0.6640 ca         1 QUV      -0.133000
     71 CCS          2.7580     4.3970    -0.5490 ca         1 QUV      -0.079000
     72 CCT          1.5030     4.9820    -0.7740 ca         1 QUV      -0.146000
     73 CCU          0.4930     4.9380     0.2140 ca         1 QUV       0.009000
     74 H1          -7.3500     5.2600     1.5280 h1         1 QUV       0.052200
     75 H1A         -5.6690     5.5340     1.0860 h1         1 QUV       0.052200
     76 H2          -5.9380     3.2580     1.9350 h1         1 QUV       0.060700
     77 HN2         -5.3960     2.2260    -0.5870 hn         1 QUV       0.342500
     78 H3          -8.0220     2.8790    -0.2600 h1         1 QUV       0.095700
     79 HO3         -8.1830     2.5610     2.6020 ho         1 QUV       0.441000
     80 H4          -6.8630     0.7390     1.5900 h1         1 QUV       0.074700
     81 HO4         -6.5760    -0.3150    -0.5190 ho         1 QUV       0.449000
     82 H5          -9.3580     0.5160     1.4230 hc         1 QUV       0.052700
     83 H5A         -9.2470     0.5090    -0.3310 hc         1 QUV       0.052700
     84 H6          -7.9560    -1.6450    -0.2380 hc         1 QUV       0.044200
     85 H6A         -7.9700    -1.5840     1.5260 hc         1 QUV       0.044200
     86 H7         -10.4750    -1.7450     1.5050 hc         1 QUV       0.038200
     87 H7A        -10.4600    -1.7870    -0.2580 hc         1 QUV       0.038200
     88 H8          -9.1310    -3.9200    -0.1940 hc         1 QUV       0.038200
     89 H8A         -9.1490    -3.8780     1.5690 hc         1 QUV       0.038200
     90 H9         -11.6560    -4.0360     1.5480 hc         1 QUV       0.037700
     91 H9A        -11.6400    -4.0740    -0.2150 hc         1 QUV       0.037700
     92 H10        -10.3100    -6.2060    -0.1550 hc         1 QUV       0.037200
     93 H10A       -10.3300    -6.1690     1.6080 hc         1 QUV       0.037200
     94 H11        -12.8370    -6.3290     1.5830 hc         1 QUV       0.037700
     95 H11A       -12.8180    -6.3630    -0.1800 hc         1 QUV       0.037700
     96 H12        -11.4870    -8.4940    -0.1240 hc         1 QUV       0.037200
     97 H12A       -11.5100    -8.4610     1.6400 hc         1 QUV       0.037200
     98 H13        -14.0170    -8.6220     1.6110 hc         1 QUV       0.037200
     99 H13A       -13.9960    -8.6520    -0.1520 hc         1 QUV       0.037200
    100 H14        -12.6640   -10.7830    -0.0990 hc         1 QUV       0.036700
    101 H14A       -12.6880   -10.7530     1.6650 hc         1 QUV       0.036700
    102 H15        -15.1960   -10.9150     1.6320 hc         1 QUV       0.036700
    103 H15A       -15.1710   -10.9430    -0.1310 hc         1 QUV       0.036700
    104 H16        -13.8390   -13.0740    -0.0780 hc         1 QUV       0.036700
    105 H16A       -13.8660   -13.0460     1.6850 hc         1 QUV       0.036700
    106 H17        -16.3750   -13.2110     1.6500 hc         1 QUV       0.036700
    107 H17A       -16.3480   -13.2400    -0.1130 hc         1 QUV       0.036700
    108 H18        -15.0740   -15.3660     1.7130 hc         1 QUV       0.031367
    109 H18A       -16.5890   -15.5440     0.8020 hc         1 QUV       0.031367
    110 H18B       -15.0460   -15.3950    -0.0660 hc         1 QUV       0.031367
    111 H1AA        -7.5340     7.2350    -0.0310 h2         1 QUV       0.068700
    112 H2A         -7.9220     8.0650    -2.2580 h1         1 QUV       0.067700
    113 HO2A        -9.0080     5.5150    -1.6360 ho         1 QUV       0.512000
    114 H3A         -6.9360     5.3740    -3.3460 h1         1 QUV       0.061700
    115 HO3A        -8.6450     6.6780    -4.4370 ho         1 QUV       0.467000
    116 H4A         -4.9910     6.5320    -4.2090 h1         1 QUV       0.054700
    117 HO4A        -6.2900     8.5710    -4.3350 ho         1 QUV       0.521000
    118 H5M         -4.8420     5.5790    -1.9550 h1         1 QUV       0.052700
    119 H6AA        -2.9500     7.1140    -2.9050 h1         1 QUV       0.071700
    120 H6AB        -3.4700     8.2940    -1.6830 h1         1 QUV       0.071700
    121 HAB         -3.5120     2.1540    -1.6400 hc         1 QUV       0.063200
    122 HABA        -2.4370     3.5750    -1.5060 hc         1 QUV       0.063200
    123 HAC         -1.5750     2.4720     0.6970 hc         1 QUV       0.052200
    124 HACA        -2.3750     1.0050     0.1520 hc         1 QUV       0.052200
    125 HAD         -0.9600     1.0050    -1.9200 hc         1 QUV       0.039700
    126 HADA        -0.2380     2.5400    -1.4360 hc         1 QUV       0.039700
    127 HAE          0.6300     1.4060     0.6740 hc         1 QUV       0.043700
    128 HAEA         0.0420    -0.1300     0.0470 hc         1 QUV       0.043700
    129 HAF          1.5590     0.0660    -1.9220 hc         1 QUV       0.036700
    130 HAFA         2.0800     1.6630    -1.3870 hc         1 QUV       0.036700
    131 HAG          3.0100     0.6380     0.7240 hc         1 QUV       0.038200
    132 HAGA         2.5450    -0.9580     0.1360 hc         1 QUV       0.038200
    133 HAH          4.0620    -0.6680    -1.8450 hc         1 QUV       0.036700
    134 HAHA         4.5120     0.9370    -1.2670 hc         1 QUV       0.036700
    135 HAI          5.4690    -0.0810     0.8210 hc         1 QUV       0.037200
    136 HAIA         5.0240    -1.6870     0.2410 hc         1 QUV       0.037200
    137 HAJ          6.5360    -1.3880    -1.7440 hc         1 QUV       0.037200
    138 HAJA         6.9800     0.2170    -1.1640 hc         1 QUV       0.037200
    139 HAK          7.9390    -0.8020     0.9230 hc         1 QUV       0.037200
    140 HAKA         7.4960    -2.4080     0.3420 hc         1 QUV       0.037200
    141 HAL          9.0080    -2.1060    -1.6430 hc         1 QUV       0.037200
    142 HALA         9.4510    -0.5010    -1.0600 hc         1 QUV       0.037200
    143 HAM         10.4100    -1.5240     1.0250 hc         1 QUV       0.037200
    144 HAMA         9.9680    -3.1280     0.4420 hc         1 QUV       0.037200
    145 HAN         11.4800    -2.8240    -1.5420 hc         1 QUV       0.037200
    146 HANA        11.9230    -1.2190    -0.9570 hc         1 QUV       0.037200
    147 HAO         12.8810    -2.2440     1.1280 hc         1 QUV       0.037200
    148 HAOA        12.4390    -3.8480     0.5420 hc         1 QUV       0.037200
    149 HAP         13.9520    -3.5410    -1.4410 hc         1 QUV       0.037200
    150 HAPA        14.3950    -1.9380    -0.8540 hc         1 QUV       0.037200
    151 HAQ         15.3530    -2.9660     1.2300 hc         1 QUV       0.036700
    152 HAQA        14.9100    -4.5690     0.6420 hc         1 QUV       0.036700
    153 HAR         16.4240    -4.2600    -1.3400 hc         1 QUV       0.037200
    154 HARA        16.8670    -2.6570    -0.7520 hc         1 QUV       0.037200
    155 HAS         17.8230    -3.6850     1.3320 hc         1 QUV       0.036700
    156 HASA        17.3820    -5.2890     0.7430 hc         1 QUV       0.036700
    157 HAT         18.8970    -4.9770    -1.2380 hc         1 QUV       0.037200
    158 HATA        19.3380    -3.3750    -0.6480 hc         1 QUV       0.037200
    159 HAU         20.2940    -4.4060     1.4360 hc         1 QUV       0.036700
    160 HAUA        19.8540    -6.0080     0.8440 hc         1 QUV       0.036700
    161 HAV         21.3700    -5.6920    -1.1360 hc         1 QUV       0.036700
    162 HAVA        21.8100    -4.0900    -0.5430 hc         1 QUV       0.036700
    163 HAW         22.7660    -5.1230     1.5390 hc         1 QUV       0.036700
    164 HAWA        22.3270    -6.7250     0.9450 hc         1 QUV       0.036700
    165 HAX         23.8440    -6.4070    -1.0330 hc         1 QUV       0.036700
    166 HAXA        24.2830    -4.8050    -0.4390 hc         1 QUV       0.036700
    167 HAY         25.2430    -5.8400     1.6430 hc         1 QUV       0.036700
    168 HAYA        24.8050    -7.4410     1.0490 hc         1 QUV       0.036700
    169 HAZ         26.3520    -7.1440    -0.9160 hc         1 QUV       0.031367
    170 HAZA        26.7930    -5.5280    -0.3160 hc         1 QUV       0.031367
    171 HAZB        27.2150    -6.9730     0.6280 hc         1 QUV       0.031367
    172 HNAZ        -3.1230     5.9900    -0.1950 hn         1 QUV       0.331500
    173 HNCJ        -1.5130     5.1410     0.6060 hn         1 QUV       0.177000
    174 HCN         -0.6830     3.4490     4.4450 ha         1 QUV       0.111000
    175 HCO          1.5490     2.4030     4.7950 ha         1 QUV       0.111000
    176 HCP          3.2820     2.5510     3.0230 ha         1 QUV       0.111000
    177 HCR          3.9960     3.2900     0.8250 ha         1 QUV       0.113000
    178 HCS          3.5230     4.4370    -1.3210 ha         1 QUV       0.112000
    179 HCT          1.3270     5.4510    -1.7370 ha         1 QUV       0.141000
    180 HCM         -1.1950     4.6320     2.3510 ha         1 QUV       0.119000
@<TRIPOS>BOND
     1     1     2 1   
     2     1    23 1   
     3     1    74 1   
     4     1    75 1   
     5     2     3 1   
     6     2     4 1   
     7     2    76 1   
     8     3    33 1   
     9     3    77 1   
    10     4     5 1   
    11     4     6 1   
    12     4    78 1   
    13     5    79 1   
    14     6     7 1   
    15     6     8 1   
    16     6    80 1   
    17     7    81 1   
    18     8     9 1   
    19     8    82 1   
    20     8    83 1   
    21     9    10 1   
    22     9    84 1   
    23     9    85 1   
    24    10    11 1   
    25    10    86 1   
    26    10    87 1   
    27    11    12 1   
    28    11    88 1   
    29    11    89 1   
    30    12    13 1   
    31    12    90 1   
    32    12    91 1   
    33    13    14 1   
    34    13    92 1   
    35    13    93 1   
    36    14    15 1   
    37    14    94 1   
    38    14    95 1   
    39    15    16 1   
    40    15    96 1   
    41    15    97 1   
    42    16    17 1   
    43    16    98 1   
    44    16    99 1   
    45    17    18 1   
    46    17   100 1   
    47    17   101 1   
    48    18    19 1   
    49    18   102 1   
    50    18   103 1   
    51    19    20 1   
    52    19   104 1   
    53    19   105 1   
    54    20    21 1   
    55    20   106 1   
    56    20   107 1   
    57    21   108 1   
    58    21   109 1   
    59    21   110 1   
    60    22    23 1   
    61    22    24 1   
    62    22    32 1   
    63    22   111 1   
    64    24    25 1   
    65    24    26 1   
    66    24   112 1   
    67    25   113 1   
    68    26    27 1   
    69    26    28 1   
    70    26   114 1   
    71    27   115 1   
    72    28    29 1   
    73    28    30 1   
    74    28   116 1   
    75    29   117 1   
    76    30    31 1   
    77    30    32 1   
    78    30   118 1   
    79    31    60 1   
    80    31   119 1   
    81    31   120 1   
    82    33    34 2   
    83    33    35 1   
    84    35    36 1   
    85    35   121 1   
    86    35   122 1   
    87    36    37 1   
    88    36   123 1   
    89    36   124 1   
    90    37    38 1   
    91    37   125 1   
    92    37   126 1   
    93    38    39 1   
    94    38   127 1   
    95    38   128 1   
    96    39    40 1   
    97    39   129 1   
    98    39   130 1   
    99    40    41 1   
   100    40   131 1   
   101    40   132 1   
   102    41    42 1   
   103    41   133 1   
   104    41   134 1   
   105    42    43 1   
   106    42   135 1   
   107    42   136 1   
   108    43    44 1   
   109    43   137 1   
   110    43   138 1   
   111    44    45 1   
   112    44   139 1   
   113    44   140 1   
   114    45    46 1   
   115    45   141 1   
   116    45   142 1   
   117    46    47 1   
   118    46   143 1   
   119    46   144 1   
   120    47    48 1   
   121    47   145 1   
   122    47   146 1   
   123    48    49 1   
   124    48   147 1   
   125    48   148 1   
   126    49    50 1   
   127    49   149 1   
   128    49   150 1   
   129    50    51 1   
   130    50   151 1   
   131    50   152 1   
   132    51    52 1   
   133    51   153 1   
   134    51   154 1   
   135    52    53 1   
   136    52   155 1   
   137    52   156 1   
   138    53    54 1   
   139    53   157 1   
   140    53   158 1   
   141    54    55 1   
   142    54   159 1   
   143    54   160 1   
   144    55    56 1   
   145    55   161 1   
   146    55   162 1   
   147    56    57 1   
   148    56   163 1   
   149    56   164 1   
   150    57    58 1   
   151    57   165 1   
   152    57   166 1   
   153    58    59 1   
   154    58   167 1   
   155    58   168 1   
   156    59   169 1   
   157    59   170 1   
   158    59   171 1   
   159    60    61 1   
   160    60   172 1   
   161    61    62 1   
   162    61    63 2   
   163    62    73 1   
   164    62   173 1   
   165    64    65 ar  
   166    64    69 ar  
   167    64    73 ar  
   168    65    66 ar  
   169    65   180 1   
   170    66    67 ar  
   171    66   174 1   
   172    67    68 ar  
   173    67   175 1   
   174    68    69 ar  
   175    68   176 1   
   176    69    70 ar  
   177    70    71 ar  
   178    70   177 1   
   179    71    72 ar  
   180    71   178 1   
   181    72    73 ar  
   182    72   179 1   
@<TRIPOS>SUBSTRUCTURE
     1 QUV         1 TEMP              0 ****  ****    0 ROOT
