@<TRIPOS>MOLECULE
QUV
  180   182     1     0     0
SMALL
abcg2


@<TRIPOS>ATOM
      1 C1          -7.1460     5.1130    -0.0840 c3         1 QUV       0.145600
      2 C2          -6.7850     3.6490     0.1140 c3         1 QUV       0.090700
      3 N2          -5.4930     3.3340    -0.4650 ns         1 QUV      -0.487900
      4 C3          -7.8720     2.6970    -0.4320 c3         1 QUV       0.127300
      5 O3          -9.0760     2.9440     0.2510 oh         1 QUV      -0.640000
      6 C4          -7.4370     1.2140    -0.3770 c3         1 QUV       0.130300
      7 O4          -6.5130     0.9510    -1.4250 oh         1 QUV      -0.667000
      8 C5          -8.5970     0.2270    -0.4150 c3         1 QUV      -0.104400
      9 C6          -8.1360    -1.2180    -0.2440 c3         1 QUV      -0.075400
     10 C7          -9.2820    -2.2200    -0.2930 c3         1 QUV      -0.074400
     11 C8          -8.8390    -3.6390     0.0420 c3         1 QUV      -0.074400
     12 C9          -9.9650    -4.6620    -0.0270 c3         1 QUV      -0.073400
     13 C10         -9.5270    -6.0600     0.3920 c3         1 QUV      -0.074400
     14 C11        -10.6420    -7.0960     0.3170 c3         1 QUV      -0.073400
     15 C12        -10.2030    -8.4810     0.7750 c3         1 QUV      -0.074400
     16 C13        -11.3100    -9.5250     0.7000 c3         1 QUV      -0.074400
     17 C14        -10.8690   -10.9030     1.1760 c3         1 QUV      -0.074400
     18 C15        -11.9720   -11.9520     1.1030 c3         1 QUV      -0.074400
     19 C16        -11.5270   -13.3270     1.5860 c3         1 QUV      -0.075400
     20 C17        -12.6270   -14.3790     1.5140 c3         1 QUV      -0.074400
     21 C18        -12.1710   -15.7470     2.0020 c3         1 QUV      -0.088100
     22 C1A         -7.2020     6.7600    -1.7460 c6         1 QUV       0.358300
     23 O1A         -7.2010     5.4010    -1.4650 os         1 QUV      -0.467000
     24 C2A         -7.6830     6.9830    -3.1840 c6         1 QUV       0.116300
     25 O2A         -8.9010     6.3310    -3.4440 oh         1 QUV      -0.712000
     26 C3A         -6.6470     6.4800    -4.1800 c6         1 QUV       0.137300
     27 O3A         -7.0080     6.7820    -5.5060 oh         1 QUV      -0.669000
     28 C4A         -5.2990     7.1420    -3.8990 c6         1 QUV       0.153300
     29 O4A         -5.3330     8.5310    -4.1100 oh         1 QUV      -0.709000
     30 C5M         -4.9290     6.8700    -2.4510 c6         1 QUV       0.151300
     31 C6A         -3.6230     7.5210    -2.0300 c3         1 QUV       0.131000
     32 O6A         -5.9350     7.3370    -1.5620 os         1 QUV      -0.466000
     33 CAA         -4.3240     3.7370     0.0380 c          1 QUV       0.604100
     34 OAA         -4.2370     4.4800     1.0190 o          1 QUV      -0.662100
     35 CAB         -3.0940     3.2450    -0.6900 c3         1 QUV      -0.161400
     36 CAC         -2.0310     2.6920     0.2560 c3         1 QUV      -0.067400
     37 CAD         -0.7000     2.4710    -0.4460 c3         1 QUV      -0.075400
     38 CAE          0.3950     1.9890     0.4960 c3         1 QUV      -0.075400
     39 CAF          1.7320     1.8080    -0.2090 c3         1 QUV      -0.073400
     40 CAG          2.8140     1.1880     0.6660 c3         1 QUV      -0.073400
     41 CAH          4.1220     0.9760    -0.0870 c3         1 QUV      -0.075400
     42 CAI          5.1790     0.2180     0.7050 c3         1 QUV      -0.073400
     43 CAJ          6.4540    -0.0240    -0.0960 c3         1 QUV      -0.075400
     44 CAK          7.5020    -0.8370     0.6510 c3         1 QUV      -0.073400
     45 CAL          8.7570    -1.0920    -0.1740 c3         1 QUV      -0.074400
     46 CAM          9.8050    -1.9240     0.5530 c3         1 QUV      -0.074400
     47 CAN         11.0510    -2.1820    -0.2850 c3         1 QUV      -0.074400
     48 CAO         12.1020    -3.0200     0.4330 c3         1 QUV      -0.074400
     49 CAP         13.3430    -3.2770    -0.4120 c3         1 QUV      -0.074400
     50 CAQ         14.3980    -4.1120     0.3020 c3         1 QUV      -0.074400
     51 CAR         15.6380    -4.3670    -0.5470 c3         1 QUV      -0.074400
     52 CAS         16.6970    -5.2000     0.1650 c3         1 QUV      -0.074400
     53 CAT         17.9350    -5.4520    -0.6860 c3         1 QUV      -0.074400
     54 CAU         18.9970    -6.2820     0.0250 c3         1 QUV      -0.074400
     55 CAV         20.2350    -6.5310    -0.8270 c3         1 QUV      -0.074400
     56 CAW         21.2990    -7.3580    -0.1180 c3         1 QUV      -0.074400
     57 CAX         22.5370    -7.6040    -0.9720 c3         1 QUV      -0.075400
     58 CAY         23.6040    -8.4320    -0.2660 c3         1 QUV      -0.074400
     59 CAZ         24.8340    -8.6680    -1.1310 c3         1 QUV      -0.088100
     60 NAZ         -3.1590     6.9260    -0.7980 ns         1 QUV      -0.538900
     61 CCI         -1.8440     6.8370    -0.4850 c          1 QUV       0.659100
     62 NCJ         -1.6050     6.0870     0.6430 ns         1 QUV      -0.179000
     63 OCK         -0.9680     7.3690    -1.1510 o          1 QUV      -0.635100
     64 CCL         -0.3250     5.4220     2.5800 ca         1 QUV      -0.064000
     65 CCM         -1.4680     5.4780     3.4160 ca         1 QUV      -0.091000
     66 CCN         -1.3990     5.1190     4.7350 ca         1 QUV      -0.118000
     67 CCO         -0.1830     4.6850     5.2960 ca         1 QUV      -0.104000
     68 CCP          0.9420     4.6360     4.5200 ca         1 QUV      -0.106000
     69 CCQ          0.9060     5.0040     3.1540 ca         1 QUV      -0.019000
     70 CCR          2.0770     4.9710     2.3640 ca         1 QUV      -0.133000
     71 CCS          2.0150     5.3290     1.0480 ca         1 QUV      -0.079000
     72 CCT          0.7990     5.7120     0.4520 ca         1 QUV      -0.146000
     73 CCU         -0.3620     5.7620     1.1900 ca         1 QUV       0.009000
     74 H1          -8.1120     5.3220     0.3900 h1         1 QUV       0.052200
     75 H1A         -6.3990     5.7290     0.4210 h1         1 QUV       0.052200
     76 H2          -6.7260     3.4850     1.1980 h1         1 QUV       0.060700
     77 HN2         -5.4800     2.6580    -1.2150 hn         1 QUV       0.342500
     78 H3          -8.0770     2.9430    -1.4800 h1         1 QUV       0.095700
     79 HO3         -8.9540     2.7470     1.1870 ho         1 QUV       0.441000
     80 H4          -6.8760     1.0460     0.5520 h1         1 QUV       0.074700
     81 HO4         -7.0000     0.9260    -2.2570 ho         1 QUV       0.449000
     82 H5          -9.3060     0.4580     0.3820 hc         1 QUV       0.052700
     83 H5A         -9.1520     0.3420    -1.3550 hc         1 QUV       0.052700
     84 H6          -7.3980    -1.4750    -1.0080 hc         1 QUV       0.044200
     85 H6A         -7.6200    -1.3080     0.7190 hc         1 QUV       0.044200
     86 H7         -10.0670    -1.9150     0.4090 hc         1 QUV       0.038200
     87 H7A         -9.7430    -2.2020    -1.2860 hc         1 QUV       0.038200
     88 H8          -8.0330    -3.9400    -0.6370 hc         1 QUV       0.038200
     89 H8A         -8.4030    -3.6470     1.0470 hc         1 QUV       0.038200
     90 H9         -10.7930    -4.3360     0.6130 hc         1 QUV       0.037700
     91 H9A        -10.3670    -4.6940    -1.0460 hc         1 QUV       0.037700
     92 H10         -8.6890    -6.3830    -0.2360 hc         1 QUV       0.037200
     93 H10A        -9.1370    -6.0220     1.4150 hc         1 QUV       0.037200
     94 H11        -11.4890    -6.7630     0.9280 hc         1 QUV       0.037700
     95 H11A       -11.0160    -7.1540    -0.7110 hc         1 QUV       0.037700
     96 H12         -9.3520    -8.8120     0.1690 hc         1 QUV       0.037200
     97 H12A        -9.8330    -8.4200     1.8040 hc         1 QUV       0.037200
     98 H13        -12.1650    -9.1910     1.2990 hc         1 QUV       0.037200
     99 H13A       -11.6740    -9.5950    -0.3310 hc         1 QUV       0.037200
    100 H14        -10.0120   -11.2360     0.5780 hc         1 QUV       0.036700
    101 H14A       -10.5070   -10.8310     2.2070 hc         1 QUV       0.036700
    102 H15        -12.8300   -11.6180     1.6970 hc         1 QUV       0.036700
    103 H15A       -12.3310   -12.0290     0.0700 hc         1 QUV       0.036700
    104 H16        -10.6680   -13.6600     0.9930 hc         1 QUV       0.036700
    105 H16A       -11.1680   -13.2490     2.6180 hc         1 QUV       0.036700
    106 H17        -13.4860   -14.0460     2.1040 hc         1 QUV       0.036700
    107 H17A       -12.9830   -14.4600     0.4820 hc         1 QUV       0.036700
    108 H18        -11.8450   -15.7070     3.0440 hc         1 QUV       0.031367
    109 H18A       -12.9710   -16.4850     1.9350 hc         1 QUV       0.031367
    110 H18B       -11.3310   -16.1170     1.4110 hc         1 QUV       0.031367
    111 H1AA        -7.8610     7.3000    -1.0510 h2         1 QUV       0.068700
    112 H2A         -7.7830     8.0670    -3.3160 h1         1 QUV       0.067700
    113 HO2A        -9.6220     6.8870    -3.1330 ho         1 QUV       0.512000
    114 H3A         -6.5190     5.3950    -4.0470 h1         1 QUV       0.061700
    115 HO3A        -7.9220     6.5080    -5.6410 ho         1 QUV       0.467000
    116 H4A         -4.5370     6.6620    -4.5310 h1         1 QUV       0.054700
    117 HO4A        -5.6550     8.6910    -5.0040 ho         1 QUV       0.521000
    118 H5M         -4.8070     5.7830    -2.3550 h1         1 QUV       0.052700
    119 H6AA        -2.8770     7.3500    -2.8060 h1         1 QUV       0.071700
    120 H6AB        -3.7530     8.6040    -1.9380 h1         1 QUV       0.071700
    121 HAB         -3.3490     2.5010    -1.4470 hc         1 QUV       0.063200
    122 HABA        -2.6820     4.1010    -1.2340 hc         1 QUV       0.063200
    123 HAC         -1.8840     3.3850     1.0860 hc         1 QUV       0.052200
    124 HACA        -2.3840     1.7540     0.6960 hc         1 QUV       0.052200
    125 HAD         -0.8240     1.7520    -1.2630 hc         1 QUV       0.039700
    126 HADA        -0.3820     3.4120    -0.9080 hc         1 QUV       0.039700
    127 HAE          0.5080     2.7100     1.3120 hc         1 QUV       0.043700
    128 HAEA         0.0900     1.0410     0.9540 hc         1 QUV       0.043700
    129 HAF          1.5910     1.1760    -1.0940 hc         1 QUV       0.036700
    130 HAFA         2.0760     2.7800    -0.5790 hc         1 QUV       0.036700
    131 HAG          2.9870     1.8210     1.5430 hc         1 QUV       0.038200
    132 HAGA         2.4580     0.2250     1.0500 hc         1 QUV       0.038200
    133 HAH          3.9110     0.4260    -1.0120 hc         1 QUV       0.036700
    134 HAHA         4.5240     1.9450    -0.4010 hc         1 QUV       0.036700
    135 HAI          5.4210     0.7660     1.6220 hc         1 QUV       0.037200
    136 HAIA         4.7670    -0.7440     1.0270 hc         1 QUV       0.037200
    137 HAJ          6.1970    -0.5390    -1.0280 hc         1 QUV       0.037200
    138 HAJA         6.8850     0.9390    -0.3940 hc         1 QUV       0.037200
    139 HAK          7.7730    -0.3210     1.5790 hc         1 QUV       0.037200
    140 HAKA         7.0670    -1.7960     0.9550 hc         1 QUV       0.037200
    141 HAL          8.4800    -1.5960    -1.1070 hc         1 QUV       0.037200
    142 HALA         9.1970    -0.1330    -0.4700 hc         1 QUV       0.037200
    143 HAM         10.0890    -1.4190     1.4830 hc         1 QUV       0.037200
    144 HAMA         9.3640    -2.8820     0.8530 hc         1 QUV       0.037200
    145 HAN         10.7640    -2.6840    -1.2160 hc         1 QUV       0.037200
    146 HANA        11.4920    -1.2240    -0.5840 hc         1 QUV       0.037200
    147 HAO         12.3920    -2.5180     1.3630 hc         1 QUV       0.037200
    148 HAOA        11.6610    -3.9770     0.7320 hc         1 QUV       0.037200
    149 HAP         13.0530    -3.7800    -1.3420 hc         1 QUV       0.037200
    150 HAPA        13.7820    -2.3190    -0.7130 hc         1 QUV       0.037200
    151 HAQ         14.6900    -3.6090     1.2300 hc         1 QUV       0.036700
    152 HAQA        13.9600    -5.0700     0.6030 hc         1 QUV       0.036700
    153 HAR         15.3450    -4.8720    -1.4750 hc         1 QUV       0.037200
    154 HARA        16.0730    -3.4090    -0.8500 hc         1 QUV       0.037200
    155 HAS         16.9890    -4.6950     1.0930 hc         1 QUV       0.036700
    156 HASA        16.2620    -6.1590     0.4680 hc         1 QUV       0.036700
    157 HAT         17.6420    -5.9580    -1.6130 hc         1 QUV       0.037200
    158 HATA        18.3680    -4.4930    -0.9900 hc         1 QUV       0.037200
    159 HAU         19.2890    -5.7760     0.9530 hc         1 QUV       0.036700
    160 HAUA        18.5650    -7.2420     0.3280 hc         1 QUV       0.036700
    161 HAV         19.9430    -7.0360    -1.7540 hc         1 QUV       0.036700
    162 HAVA        20.6650    -5.5700    -1.1310 hc         1 QUV       0.036700
    163 HAW         21.5920    -6.8530     0.8100 hc         1 QUV       0.036700
    164 HAWA        20.8700    -8.3200     0.1850 hc         1 QUV       0.036700
    165 HAX         22.2440    -8.1090    -1.8990 hc         1 QUV       0.036700
    166 HAXA        22.9660    -6.6430    -1.2750 hc         1 QUV       0.036700
    167 HAY         23.8950    -7.9290     0.6610 hc         1 QUV       0.036700
    168 HAYA        23.1750    -9.3930     0.0340 hc         1 QUV       0.036700
    169 HAZ         24.5730    -9.2000    -2.0480 hc         1 QUV       0.031367
    170 HAZA        25.2990    -7.7240    -1.4210 hc         1 QUV       0.031367
    171 HAZB        25.5870    -9.2610    -0.6100 hc         1 QUV       0.031367
    172 HNAZ        -3.8540     6.6110    -0.1400 hn         1 QUV       0.331500
    173 HNCJ        -2.4050     5.5980     1.0290 hn         1 QUV       0.177000
    174 HCN         -2.2850     5.1750     5.3540 ha         1 QUV       0.111000
    175 HCO         -0.1410     4.3990     6.3380 ha         1 QUV       0.111000
    176 HCP          1.8850     4.3110     4.9430 ha         1 QUV       0.111000
    177 HCR          3.0110     4.6540     2.8100 ha         1 QUV       0.113000
    178 HCS          2.9050     5.3020     0.4320 ha         1 QUV       0.112000
    179 HCT          0.7880     5.9470    -0.5990 ha         1 QUV       0.141000
    180 HCM         -2.4160     5.8250     3.0300 ha         1 QUV       0.119000
@<TRIPOS>BOND
     1     1     2 1   
     2     1    23 1   
     3     1    74 1   
     4     1    75 1   
     5     2     3 1   
     6     2     4 1   
     7     2    76 1   
     8     3    33 1   
     9     3    77 1   
    10     4     5 1   
    11     4     6 1   
    12     4    78 1   
    13     5    79 1   
    14     6     7 1   
    15     6     8 1   
    16     6    80 1   
    17     7    81 1   
    18     8     9 1   
    19     8    82 1   
    20     8    83 1   
    21     9    10 1   
    22     9    84 1   
    23     9    85 1   
    24    10    11 1   
    25    10    86 1   
    26    10    87 1   
    27    11    12 1   
    28    11    88 1   
    29    11    89 1   
    30    12    13 1   
    31    12    90 1   
    32    12    91 1   
    33    13    14 1   
    34    13    92 1   
    35    13    93 1   
    36    14    15 1   
    37    14    94 1   
    38    14    95 1   
    39    15    16 1   
    40    15    96 1   
    41    15    97 1   
    42    16    17 1   
    43    16    98 1   
    44    16    99 1   
    45    17    18 1   
    46    17   100 1   
    47    17   101 1   
    48    18    19 1   
    49    18   102 1   
    50    18   103 1   
    51    19    20 1   
    52    19   104 1   
    53    19   105 1   
    54    20    21 1   
    55    20   106 1   
    56    20   107 1   
    57    21   108 1   
    58    21   109 1   
    59    21   110 1   
    60    22    23 1   
    61    22    24 1   
    62    22    32 1   
    63    22   111 1   
    64    24    25 1   
    65    24    26 1   
    66    24   112 1   
    67    25   113 1   
    68    26    27 1   
    69    26    28 1   
    70    26   114 1   
    71    27   115 1   
    72    28    29 1   
    73    28    30 1   
    74    28   116 1   
    75    29   117 1   
    76    30    31 1   
    77    30    32 1   
    78    30   118 1   
    79    31    60 1   
    80    31   119 1   
    81    31   120 1   
    82    33    34 2   
    83    33    35 1   
    84    35    36 1   
    85    35   121 1   
    86    35   122 1   
    87    36    37 1   
    88    36   123 1   
    89    36   124 1   
    90    37    38 1   
    91    37   125 1   
    92    37   126 1   
    93    38    39 1   
    94    38   127 1   
    95    38   128 1   
    96    39    40 1   
    97    39   129 1   
    98    39   130 1   
    99    40    41 1   
   100    40   131 1   
   101    40   132 1   
   102    41    42 1   
   103    41   133 1   
   104    41   134 1   
   105    42    43 1   
   106    42   135 1   
   107    42   136 1   
   108    43    44 1   
   109    43   137 1   
   110    43   138 1   
   111    44    45 1   
   112    44   139 1   
   113    44   140 1   
   114    45    46 1   
   115    45   141 1   
   116    45   142 1   
   117    46    47 1   
   118    46   143 1   
   119    46   144 1   
   120    47    48 1   
   121    47   145 1   
   122    47   146 1   
   123    48    49 1   
   124    48   147 1   
   125    48   148 1   
   126    49    50 1   
   127    49   149 1   
   128    49   150 1   
   129    50    51 1   
   130    50   151 1   
   131    50   152 1   
   132    51    52 1   
   133    51   153 1   
   134    51   154 1   
   135    52    53 1   
   136    52   155 1   
   137    52   156 1   
   138    53    54 1   
   139    53   157 1   
   140    53   158 1   
   141    54    55 1   
   142    54   159 1   
   143    54   160 1   
   144    55    56 1   
   145    55   161 1   
   146    55   162 1   
   147    56    57 1   
   148    56   163 1   
   149    56   164 1   
   150    57    58 1   
   151    57   165 1   
   152    57   166 1   
   153    58    59 1   
   154    58   167 1   
   155    58   168 1   
   156    59   169 1   
   157    59   170 1   
   158    59   171 1   
   159    60    61 1   
   160    60   172 1   
   161    61    62 1   
   162    61    63 2   
   163    62    73 1   
   164    62   173 1   
   165    64    65 ar  
   166    64    69 ar  
   167    64    73 ar  
   168    65    66 ar  
   169    65   180 1   
   170    66    67 ar  
   171    66   174 1   
   172    67    68 ar  
   173    67   175 1   
   174    68    69 ar  
   175    68   176 1   
   176    69    70 ar  
   177    70    71 ar  
   178    70   177 1   
   179    71    72 ar  
   180    71   178 1   
   181    72    73 ar  
   182    72   179 1   
@<TRIPOS>SUBSTRUCTURE
     1 QUV         1 TEMP              0 ****  ****    0 ROOT
