@<TRIPOS>MOLECULE
QUX
  161   161     1     0     0
SMALL
No Charge or Current Charge


@<TRIPOS>ATOM
      1 C1A         -3.9310    -3.9950     1.2080 c6         1 QUX       0.172300
      2 C2A         -2.8530    -5.0060     0.6900 c6         1 QUX       0.152300
      3 O2A         -1.5190    -4.4570     0.7260 oh         1 QUX      -0.720000
      4 C3A         -3.1940    -5.4960    -0.7560 c6         1 QUX       0.138300
      5 O3A         -2.2590    -6.5060    -1.1700 oh         1 QUX      -0.650000
      6 C4A         -4.6430    -6.0710    -0.8140 c6         1 QUX       0.115300
      7 O4A         -4.6890    -7.3070    -0.0610 oh         1 QUX      -0.693000
      8 C5M         -5.6330    -4.9850    -0.2660 c6         1 QUX       0.131300
      9 C6A         -7.1230    -5.4630    -0.2490 c3         1 QUX       0.169600
     10 O6A         -5.2550    -4.5820     1.0810 os         1 QUX      -0.433000
     11 CAG         -3.9000    -2.5850     0.5220 c3         1 QUX      -0.098400
     12 CAL         -5.0250    -1.6160     0.9740 c3         1 QUX      -0.092400
     13 CAM         -4.9440    -0.2090     0.3170 c3         1 QUX       0.084700
     14 CAN         -6.1590     0.7300     0.6260 c3         1 QUX       0.120300
     15 CAO         -7.5360     0.2090     0.0840 c3         1 QUX       0.136300
     16 CAP         -8.7050     1.2030     0.3260 c3         1 QUX      -0.108400
     17 CAQ        -10.0920     0.6730    -0.1160 c3         1 QUX      -0.071400
     18 CAR        -11.2390     1.6620     0.1890 c3         1 QUX      -0.076400
     19 CAS        -12.6230     1.1360    -0.2490 c3         1 QUX      -0.073400
     20 CAT        -13.7700     2.1250     0.0580 c3         1 QUX      -0.074400
     21 CAU        -15.1540     1.5990    -0.3800 c3         1 QUX      -0.073400
     22 CAV        -16.3010     2.5870    -0.0740 c3         1 QUX      -0.074400
     23 CAW        -17.6850     2.0610    -0.5120 c3         1 QUX      -0.074400
     24 CAX        -18.8320     3.0490    -0.2060 c3         1 QUX      -0.074400
     25 CAY        -20.2160     2.5230    -0.6440 c3         1 QUX      -0.074400
     26 CAZ        -21.3630     3.5110    -0.3380 c3         1 QUX      -0.074400
     27 CBA        -22.7470     2.9850    -0.7760 c3         1 QUX      -0.075400
     28 CBB        -23.8940     3.9730    -0.4700 c3         1 QUX      -0.075400
     29 CBC        -25.2760     3.4490    -0.9070 c3         1 QUX      -0.088100
     30 OBD         -6.2340     0.9890     2.0450 oh         1 QUX      -0.659000
     31 OBE         -7.4390    -0.0530    -1.3260 oh         1 QUX      -0.650000
     32 NBF         -3.6780     0.4460     0.6770 ns         1 QUX      -0.502900
     33 CBG         -2.9960     1.3320    -0.1240 c          1 QUX       0.602100
     34 OBH         -3.3980     1.6570    -1.2330 o          1 QUX      -0.614100
     35 CBI         -1.7140     1.9040     0.4890 c3         1 QUX      -0.157400
     36 CBK         -0.4530     1.2790    -0.1520 c3         1 QUX      -0.066400
     37 CBL          0.8620     1.8220     0.4480 c3         1 QUX      -0.076400
     38 CBM          2.1210     1.1970    -0.1920 c3         1 QUX      -0.073400
     39 CBN          3.4370     1.7400     0.4090 c3         1 QUX      -0.074400
     40 CBO          4.6960     1.1150    -0.2300 c3         1 QUX      -0.073400
     41 CBP          6.0110     1.6580     0.3710 c3         1 QUX      -0.075400
     42 CBQ          7.2710     1.0330    -0.2680 c3         1 QUX      -0.073400
     43 CBR          8.5860     1.5750     0.3330 c3         1 QUX      -0.075400
     44 CBS          9.8450     0.9500    -0.3060 c3         1 QUX      -0.073400
     45 CBT         11.1610     1.4920     0.2950 c3         1 QUX      -0.075400
     46 CBU         12.4200     0.8660    -0.3430 c3         1 QUX      -0.073400
     47 CBV         13.7350     1.4090     0.2580 c3         1 QUX      -0.074400
     48 CBW         14.9950     0.7820    -0.3800 c3         1 QUX      -0.073400
     49 CBX         16.3100     1.3250     0.2200 c3         1 QUX      -0.074400
     50 CBY         17.5690     0.6990    -0.4180 c3         1 QUX      -0.073400
     51 CBZ         18.8850     1.2420     0.1820 c3         1 QUX      -0.074400
     52 CCA         20.1440     0.6160    -0.4560 c3         1 QUX      -0.074400
     53 CCB         21.4590     1.1590     0.1430 c3         1 QUX      -0.074400
     54 CCC         22.7180     0.5330    -0.4950 c3         1 QUX      -0.074400
     55 CCD         24.0340     1.0760     0.1040 c3         1 QUX      -0.074400
     56 CCE         25.2930     0.4500    -0.5350 c3         1 QUX      -0.074400
     57 CCF         26.6090     0.9940     0.0640 c3         1 QUX      -0.075400
     58 CCG         27.8680     0.3680    -0.5750 c3         1 QUX      -0.074400
     59 CCH         29.1810     0.9100     0.0230 c3         1 QUX      -0.088100
     60 H1A         -3.7470    -3.8340     2.2810 h1         1 QUX       0.084700
     61 H2A         -2.8990    -5.8820     1.3540 h1         1 QUX       0.070700
     62 HO2A        -0.9910    -5.0340     0.1220 ho         1 QUX       0.521000
     63 H3A         -3.1350    -4.6390    -1.4420 h1         1 QUX       0.046700
     64 HO3A        -2.6740    -7.3510    -0.8760 ho         1 QUX       0.446000
     65 H4A         -4.8940    -6.2680    -1.8660 h1         1 QUX       0.031700
     66 HO4A        -5.5450    -7.7500    -0.2640 ho         1 QUX       0.499000
     67 H5M         -5.5930    -4.1100    -0.9290 h1         1 QUX       0.058700
     68 HO5M        -8.9290    -4.8650     0.2530 ho         1 QUX       0.504000
     69 H6A         -7.3910    -5.7810    -1.2650 h1         1 QUX       0.025700
     70 H6AA        -7.1990    -6.3440     0.4020 h1         1 QUX       0.025700
     71 HAG         -2.9320    -2.1210     0.7440 hc         1 QUX       0.058700
     72 HAGA        -3.9330    -2.6770    -0.5690 hc         1 QUX       0.058700
     73 HAL         -5.9900    -2.0710     0.7280 hc         1 QUX       0.053700
     74 HALA        -4.9910    -1.5180     2.0660 hc         1 QUX       0.053700
     75 HAM         -4.9310    -0.3690    -0.7710 h1         1 QUX       0.099700
     76 HAN         -5.9620     1.6790     0.1060 h1         1 QUX       0.075700
     77 HAO         -7.7790    -0.7230     0.6140 h1         1 QUX       0.081700
     78 HAP         -8.7570     1.4390     1.3950 hc         1 QUX       0.049200
     79 HAPA        -8.4940     2.1480    -0.1910 hc         1 QUX       0.049200
     80 HAQ        -10.0820     0.4640    -1.1930 hc         1 QUX       0.044200
     81 HAQA       -10.2920    -0.2780     0.3930 hc         1 QUX       0.044200
     82 HAR        -11.2580     1.8710     1.2670 hc         1 QUX       0.037700
     83 HARA       -11.0380     2.6140    -0.3180 hc         1 QUX       0.037700
     84 HAS        -12.6050     0.9280    -1.3260 hc         1 QUX       0.037200
     85 HASA       -12.8240     0.1840     0.2590 hc         1 QUX       0.037200
     86 HAT        -13.7880     2.3330     1.1350 hc         1 QUX       0.037200
     87 HATA       -13.5690     3.0770    -0.4500 hc         1 QUX       0.037200
     88 HAU        -15.1360     1.3900    -1.4580 hc         1 QUX       0.037200
     89 HAUA       -15.3550     0.6460     0.1270 hc         1 QUX       0.037200
     90 HAV        -16.3190     2.7950     1.0030 hc         1 QUX       0.037200
     91 HAVA       -16.1010     3.5390    -0.5810 hc         1 QUX       0.037200
     92 HAW        -17.6670     1.8530    -1.5890 hc         1 QUX       0.037200
     93 HAWA       -17.8860     1.1090    -0.0050 hc         1 QUX       0.037200
     94 HAX        -18.8500     3.2580     0.8710 hc         1 QUX       0.037200
     95 HAXA       -18.6320     4.0010    -0.7130 hc         1 QUX       0.037200
     96 HAY        -20.1980     2.3150    -1.7210 hc         1 QUX       0.036700
     97 HAYA       -20.4170     1.5710    -0.1370 hc         1 QUX       0.036700
     98 HAZ        -21.3810     3.7200     0.7390 hc         1 QUX       0.036700
     99 HAZA       -21.1630     4.4640    -0.8450 hc         1 QUX       0.036700
    100 HBA        -22.7290     2.7770    -1.8530 hc         1 QUX       0.036700
    101 HBAA       -22.9480     2.0330    -0.2690 hc         1 QUX       0.036700
    102 HBB        -23.9170     4.1820     0.6070 hc         1 QUX       0.036700
    103 HBBA       -23.6980     4.9260    -0.9770 hc         1 QUX       0.036700
    104 HBC        -25.5170     2.5120    -0.3890 hc         1 QUX       0.031367
    105 HBCA       -26.0550     4.1820    -0.6700 hc         1 QUX       0.031367
    106 HBCB       -25.2960     3.2630    -1.9870 hc         1 QUX       0.031367
    107 HOBD        -6.3120     0.1230     2.4990 ho         1 QUX       0.444000
    108 HOBE        -7.5310     0.8080    -1.7880 ho         1 QUX       0.442000
    109 HNBF        -3.2840     0.2640     1.5910 hn         1 QUX       0.315500
    110 HBI         -1.6930     2.9860     0.3150 hc         1 QUX       0.054700
    111 HBIA        -1.6910     1.7000     1.5670 hc         1 QUX       0.054700
    112 HBK         -0.4860     0.1890    -0.0230 hc         1 QUX       0.054700
    113 HBKA        -0.4640     1.4720    -1.2330 hc         1 QUX       0.054700
    114 HBL          0.8950     2.9110     0.3180 hc         1 QUX       0.035700
    115 HBLA         0.8730     1.6280     1.5280 hc         1 QUX       0.035700
    116 HBM          2.0890     0.1080    -0.0610 hc         1 QUX       0.040200
    117 HBMA         2.1120     1.3910    -1.2710 hc         1 QUX       0.040200
    118 HBN          3.4690     2.8290     0.2790 hc         1 QUX       0.036200
    119 HBNA         3.4470     1.5460     1.4890 hc         1 QUX       0.036200
    120 HBO          4.6630     0.0260    -0.1000 hc         1 QUX       0.038200
    121 HBOA         4.6860     1.3090    -1.3100 hc         1 QUX       0.038200
    122 HBP          6.0440     2.7470     0.2400 hc         1 QUX       0.036700
    123 HBPA         6.0210     1.4640     1.4510 hc         1 QUX       0.036700
    124 HBQ          7.2380    -0.0560    -0.1380 hc         1 QUX       0.037700
    125 HBQA         7.2610     1.2270    -1.3480 hc         1 QUX       0.037700
    126 HBR          8.6190     2.6640     0.2020 hc         1 QUX       0.036700
    127 HBRA         8.5960     1.3820     1.4130 hc         1 QUX       0.036700
    128 HBS          9.8120    -0.1390    -0.1750 hc         1 QUX       0.037700
    129 HBSA         9.8360     1.1430    -1.3860 hc         1 QUX       0.037700
    130 HBT         11.1940     2.5810     0.1650 hc         1 QUX       0.036700
    131 HBTA        11.1700     1.2990     1.3750 hc         1 QUX       0.036700
    132 HBU         12.3870    -0.2230    -0.2120 hc         1 QUX       0.037700
    133 HBUA        12.4110     1.0600    -1.4230 hc         1 QUX       0.037700
    134 HBV         13.7690     2.4980     0.1270 hc         1 QUX       0.036700
    135 HBVA        13.7450     1.2150     1.3380 hc         1 QUX       0.036700
    136 HBW         14.9610    -0.3060    -0.2490 hc         1 QUX       0.037700
    137 HBWA        14.9850     0.9760    -1.4600 hc         1 QUX       0.037700
    138 HBX         16.3430     2.4140     0.0890 hc         1 QUX       0.036700
    139 HBXA        16.3200     1.1320     1.3010 hc         1 QUX       0.036700
    140 HBY         17.5360    -0.3900    -0.2860 hc         1 QUX       0.037200
    141 HBYA        17.5590     0.8920    -1.4980 hc         1 QUX       0.037200
    142 HBZ         18.9180     2.3310     0.0510 hc         1 QUX       0.036700
    143 HBZA        18.8950     1.0490     1.2620 hc         1 QUX       0.036700
    144 HCA         20.1110    -0.4730    -0.3250 hc         1 QUX       0.036700
    145 HCAA        20.1340     0.8090    -1.5360 hc         1 QUX       0.036700
    146 HCB         21.4920     2.2480     0.0120 hc         1 QUX       0.036700
    147 HCBA        21.4700     0.9660     1.2230 hc         1 QUX       0.036700
    148 HCC         22.6850    -0.5560    -0.3640 hc         1 QUX       0.036700
    149 HCCA        22.7080     0.7260    -1.5760 hc         1 QUX       0.036700
    150 HCD         24.0670     2.1650    -0.0280 hc         1 QUX       0.036700
    151 HCDA        24.0440     0.8830     1.1840 hc         1 QUX       0.036700
    152 HCE         25.2600    -0.6390    -0.4030 hc         1 QUX       0.036700
    153 HCEA        25.2820     0.6430    -1.6150 hc         1 QUX       0.036700
    154 HCF         26.6420     2.0820    -0.0670 hc         1 QUX       0.036700
    155 HCFA        26.6190     0.8010     1.1440 hc         1 QUX       0.036700
    156 HCG         27.8390    -0.7210    -0.4430 hc         1 QUX       0.036700
    157 HCGA        27.8620     0.5600    -1.6550 hc         1 QUX       0.036700
    158 HCH         29.2560     1.9940    -0.1240 hc         1 QUX       0.031367
    159 HCHA        29.2330     0.7010     1.0980 hc         1 QUX       0.031367
    160 HCHB        30.0440     0.4370    -0.4610 hc         1 QUX       0.031367
    161 O5M         -8.0390    -4.4470     0.2020 oh         1 QUX      -0.711000
@<TRIPOS>BOND
     1     1     2 1   
     2     1    10 1   
     3     1    11 1   
     4     1    60 1   
     5     2     3 1   
     6     2     4 1   
     7     2    61 1   
     8     3    62 1   
     9     4     5 1   
    10     4     6 1   
    11     4    63 1   
    12     5    64 1   
    13     6     7 1   
    14     6     8 1   
    15     6    65 1   
    16     7    66 1   
    17     8     9 1   
    18     8    10 1   
    19     8    67 1   
    20     9    69 1   
    21     9    70 1   
    22     9   161 1   
    23    11    12 1   
    24    11    71 1   
    25    11    72 1   
    26    12    13 1   
    27    12    73 1   
    28    12    74 1   
    29    13    14 1   
    30    13    32 1   
    31    13    75 1   
    32    14    15 1   
    33    14    30 1   
    34    14    76 1   
    35    15    16 1   
    36    15    31 1   
    37    15    77 1   
    38    16    17 1   
    39    16    78 1   
    40    16    79 1   
    41    17    18 1   
    42    17    80 1   
    43    17    81 1   
    44    18    19 1   
    45    18    82 1   
    46    18    83 1   
    47    19    20 1   
    48    19    84 1   
    49    19    85 1   
    50    20    21 1   
    51    20    86 1   
    52    20    87 1   
    53    21    22 1   
    54    21    88 1   
    55    21    89 1   
    56    22    23 1   
    57    22    90 1   
    58    22    91 1   
    59    23    24 1   
    60    23    92 1   
    61    23    93 1   
    62    24    25 1   
    63    24    94 1   
    64    24    95 1   
    65    25    26 1   
    66    25    96 1   
    67    25    97 1   
    68    26    27 1   
    69    26    98 1   
    70    26    99 1   
    71    27    28 1   
    72    27   100 1   
    73    27   101 1   
    74    28    29 1   
    75    28   102 1   
    76    28   103 1   
    77    29   104 1   
    78    29   105 1   
    79    29   106 1   
    80    30   107 1   
    81    31   108 1   
    82    32    33 1   
    83    32   109 1   
    84    33    34 2   
    85    33    35 1   
    86    35    36 1   
    87    35   110 1   
    88    35   111 1   
    89    36    37 1   
    90    36   112 1   
    91    36   113 1   
    92    37    38 1   
    93    37   114 1   
    94    37   115 1   
    95    38    39 1   
    96    38   116 1   
    97    38   117 1   
    98    39    40 1   
    99    39   118 1   
   100    39   119 1   
   101    40    41 1   
   102    40   120 1   
   103    40   121 1   
   104    41    42 1   
   105    41   122 1   
   106    41   123 1   
   107    42    43 1   
   108    42   124 1   
   109    42   125 1   
   110    43    44 1   
   111    43   126 1   
   112    43   127 1   
   113    44    45 1   
   114    44   128 1   
   115    44   129 1   
   116    45    46 1   
   117    45   130 1   
   118    45   131 1   
   119    46    47 1   
   120    46   132 1   
   121    46   133 1   
   122    47    48 1   
   123    47   134 1   
   124    47   135 1   
   125    48    49 1   
   126    48   136 1   
   127    48   137 1   
   128    49    50 1   
   129    49   138 1   
   130    49   139 1   
   131    50    51 1   
   132    50   140 1   
   133    50   141 1   
   134    51    52 1   
   135    51   142 1   
   136    51   143 1   
   137    52    53 1   
   138    52   144 1   
   139    52   145 1   
   140    53    54 1   
   141    53   146 1   
   142    53   147 1   
   143    54    55 1   
   144    54   148 1   
   145    54   149 1   
   146    55    56 1   
   147    55   150 1   
   148    55   151 1   
   149    56    57 1   
   150    56   152 1   
   151    56   153 1   
   152    57    58 1   
   153    57   154 1   
   154    57   155 1   
   155    58    59 1   
   156    58   156 1   
   157    58   157 1   
   158    59   158 1   
   159    59   159 1   
   160    59   160 1   
   161    68   161 1   
@<TRIPOS>SUBSTRUCTURE
     1 QUX         1 TEMP              0 ****  ****    0 ROOT
