@<TRIPOS>MOLECULE
QUX
  161   161     1     0     0
SMALL
abcg2


@<TRIPOS>ATOM
      1 C1A         -4.5940    -4.8570     1.4400 c6         1 QUX       0.172300
      2 C2A         -3.8650    -6.1010     0.9150 c6         1 QUX       0.152300
      3 O2A         -2.5170    -5.7650     0.6890 oh         1 QUX      -0.720000
      4 C3A         -4.5400    -6.6220    -0.3500 c6         1 QUX       0.138300
      5 O3A         -3.8530    -7.7850    -0.7460 oh         1 QUX      -0.650000
      6 C4A         -6.0290    -6.8630    -0.1060 c6         1 QUX       0.115300
      7 O4A         -6.1720    -7.9390     0.7910 oh         1 QUX      -0.693000
      8 C5M         -6.6300    -5.5640     0.4320 c6         1 QUX       0.131300
      9 C6A         -8.1050    -5.6750     0.7480 c3         1 QUX       0.169600
     10 O6A         -5.9630    -5.1660     1.6110 os         1 QUX      -0.433000
     11 CAG         -4.3760    -3.5950     0.6040 c3         1 QUX      -0.098400
     12 CAL         -5.2260    -2.4310     1.1000 c3         1 QUX      -0.092400
     13 CAM         -5.0110    -1.1620     0.2770 c3         1 QUX       0.084700
     14 CAN         -6.0540    -0.0700     0.5660 c3         1 QUX       0.120300
     15 CAO         -7.4710    -0.4440     0.0930 c3         1 QUX       0.136300
     16 CAP         -8.4630     0.6880     0.3360 c3         1 QUX      -0.108400
     17 CAQ         -9.8930     0.3480    -0.0680 c3         1 QUX      -0.071400
     18 CAR        -10.8610     1.4910     0.2100 c3         1 QUX      -0.076400
     19 CAS        -12.2970     1.1790    -0.1910 c3         1 QUX      -0.073400
     20 CAT        -13.2580     2.3280     0.0870 c3         1 QUX      -0.074400
     21 CAU        -14.6970     2.0270    -0.3100 c3         1 QUX      -0.073400
     22 CAV        -15.6500     3.1820    -0.0270 c3         1 QUX      -0.074400
     23 CAW        -17.0930     2.8880    -0.4170 c3         1 QUX      -0.074400
     24 CAX        -18.0400     4.0460    -0.1280 c3         1 QUX      -0.074400
     25 CAY        -19.4850     3.7570    -0.5110 c3         1 QUX      -0.074400
     26 CAZ        -20.4280     4.9190    -0.2200 c3         1 QUX      -0.074400
     27 CBA        -21.8750     4.6310    -0.5960 c3         1 QUX      -0.075400
     28 CBB        -22.8180     5.7920    -0.3040 c3         1 QUX      -0.075400
     29 CBC        -24.2630     5.4900    -0.6760 c3         1 QUX      -0.088100
     30 OBD         -6.0360     0.3100     1.9260 oh         1 QUX      -0.659000
     31 OBE         -7.4470    -0.8420    -1.2630 oh         1 QUX      -0.650000
     32 NBF         -3.6800    -0.6380     0.5090 ns         1 QUX      -0.502900
     33 CBG         -2.7640    -0.4010    -0.4450 c          1 QUX       0.602100
     34 OBH         -2.9460    -0.6470    -1.6310 o          1 QUX      -0.614100
     35 CBI         -1.4760     0.2210     0.0520 c3         1 QUX      -0.157400
     36 CBK         -0.2340    -0.3310    -0.6370 c3         1 QUX      -0.066400
     37 CBL          1.0370     0.3420    -0.1380 c3         1 QUX      -0.076400
     38 CBM          2.3020    -0.1820    -0.8070 c3         1 QUX      -0.073400
     39 CBN          3.5640     0.4960    -0.2910 c3         1 QUX      -0.074400
     40 CBO          4.8460    -0.0130    -0.9390 c3         1 QUX      -0.073400
     41 CBP          6.0920     0.6740    -0.3960 c3         1 QUX      -0.075400
     42 CBQ          7.3940     0.1740    -1.0100 c3         1 QUX      -0.073400
     43 CBR          8.6190     0.8710    -0.4330 c3         1 QUX      -0.075400
     44 CBS          9.9410     0.3800    -1.0100 c3         1 QUX      -0.073400
     45 CBT         11.1450     1.0850    -0.3980 c3         1 QUX      -0.075400
     46 CBU         12.4860     0.6030    -0.9370 c3         1 QUX      -0.073400
     47 CBV         13.6690     1.3140    -0.2940 c3         1 QUX      -0.074400
     48 CBW         15.0240     0.8420    -0.8040 c3         1 QUX      -0.073400
     49 CBX         16.1910     1.5590    -0.1370 c3         1 QUX      -0.074400
     50 CBY         17.5570     1.0950    -0.6270 c3         1 QUX      -0.073400
     51 CBZ         18.7110     1.8170     0.0560 c3         1 QUX      -0.074400
     52 CCA         20.0840     1.3590    -0.4200 c3         1 QUX      -0.074400
     53 CCB         21.2300     2.0840     0.2730 c3         1 QUX      -0.074400
     54 CCC         22.6080     1.6300    -0.1930 c3         1 QUX      -0.074400
     55 CCD         23.7480     2.3570     0.5080 c3         1 QUX      -0.074400
     56 CCE         25.1280     1.9070     0.0470 c3         1 QUX      -0.074400
     57 CCF         26.2650     2.6340     0.7530 c3         1 QUX      -0.075400
     58 CCG         27.6480     2.1880     0.2950 c3         1 QUX      -0.074400
     59 CCH         28.7730     2.9220     1.0100 c3         1 QUX      -0.088100
     60 H1A         -4.2260    -4.6490     2.4500 h1         1 QUX       0.084700
     61 H2A         -3.9430    -6.8780     1.6900 h1         1 QUX       0.070700
     62 HO2A        -2.0720    -6.5470     0.3460 ho         1 QUX       0.521000
     63 H3A         -4.4610    -5.8480    -1.1280 h1         1 QUX       0.046700
     64 HO3A        -4.0660    -7.9730    -1.6650 ho         1 QUX       0.446000
     65 H4A         -6.5080    -7.0890    -1.0700 h1         1 QUX       0.031700
     66 HO4A        -7.0610    -8.2960     0.7090 ho         1 QUX       0.499000
     67 H5M         -6.5190    -4.8080    -0.3600 h1         1 QUX       0.058700
     68 HO5M        -9.5270    -4.4740     1.2840 ho         1 QUX       0.504000
     69 H6A         -8.6090    -6.1190    -0.1210 h1         1 QUX       0.025700
     70 H6AA        -8.2520    -6.3620     1.5920 h1         1 QUX       0.025700
     71 HAG         -3.3190    -3.3300     0.6600 hc         1 QUX       0.058700
     72 HAGA        -4.5860    -3.7670    -0.4570 hc         1 QUX       0.058700
     73 HAL         -6.2800    -2.7100     1.0650 hc         1 QUX       0.053700
     74 HALA        -4.9950    -2.2390     2.1550 hc         1 QUX       0.053700
     75 HAM         -5.0770    -1.4110    -0.7810 h1         1 QUX       0.099700
     76 HAN         -5.7470     0.8260     0.0110 h1         1 QUX       0.075700
     77 HAO         -7.8140    -1.3300     0.6440 h1         1 QUX       0.081700
     78 HAP         -8.4450     0.9560     1.3950 hc         1 QUX       0.049200
     79 HAPA        -8.1280     1.5820    -0.2060 hc         1 QUX       0.049200
     80 HAQ         -9.9330     0.0930    -1.1310 hc         1 QUX       0.044200
     81 HAQA       -10.2210    -0.5460     0.4730 hc         1 QUX       0.044200
     82 HAR        -10.8290     1.7430     1.2760 hc         1 QUX       0.037700
     83 HARA       -10.5240     2.3880    -0.3210 hc         1 QUX       0.037700
     84 HAS        -12.3310     0.9280    -1.2570 hc         1 QUX       0.037200
     85 HASA       -12.6380     0.2840     0.3410 hc         1 QUX       0.037200
     86 HAT        -13.2220     2.5790     1.1530 hc         1 QUX       0.037200
     87 HATA       -12.9140     3.2230    -0.4440 hc         1 QUX       0.037200
     88 HAU        -14.7360     1.7780    -1.3770 hc         1 QUX       0.037200
     89 HAUA       -15.0420     1.1330     0.2210 hc         1 QUX       0.037200
     90 HAV        -15.6070     3.4320     1.0390 hc         1 QUX       0.037200
     91 HAVA       -15.3050     4.0750    -0.5600 hc         1 QUX       0.037200
     92 HAW        -17.1390     2.6400    -1.4830 hc         1 QUX       0.037200
     93 HAWA       -17.4390     1.9950     0.1160 hc         1 QUX       0.037200
     94 HAX        -17.9900     4.2960     0.9380 hc         1 QUX       0.037200
     95 HAXA       -17.6940     4.9390    -0.6620 hc         1 QUX       0.037200
     96 HAY        -19.5370     3.5070    -1.5770 hc         1 QUX       0.036700
     97 HAYA       -19.8320     2.8660     0.0250 hc         1 QUX       0.036700
     98 HAZ        -20.3730     5.1710     0.8450 hc         1 QUX       0.036700
     99 HAZA       -20.0820     5.8090    -0.7580 hc         1 QUX       0.036700
    100 HBA        -21.9320     4.3790    -1.6610 hc         1 QUX       0.036700
    101 HBAA       -22.2210     3.7410    -0.0580 hc         1 QUX       0.036700
    102 HBB        -22.7590     6.0450     0.7600 hc         1 QUX       0.036700
    103 HBBA       -22.4760     6.6800    -0.8440 hc         1 QUX       0.036700
    104 HBC        -24.6380     4.6270    -0.1230 hc         1 QUX       0.031367
    105 HBCA       -24.9200     6.3320    -0.4570 hc         1 QUX       0.031367
    106 HBCB       -24.3580     5.2640    -1.7400 hc         1 QUX       0.031367
    107 HOBD        -6.3990    -0.4080     2.4560 ho         1 QUX       0.444000
    108 HOBE        -7.2700    -0.0630    -1.8020 ho         1 QUX       0.442000
    109 HNBF        -3.4510    -0.3860     1.4580 hn         1 QUX       0.315500
    110 HBI         -1.5440     1.2990    -0.1300 hc         1 QUX       0.054700
    111 HBIA        -1.3850     0.1030     1.1350 hc         1 QUX       0.054700
    112 HBK         -0.1680    -1.4100    -0.4650 hc         1 QUX       0.054700
    113 HBKA        -0.3220    -0.1950    -1.7170 hc         1 QUX       0.054700
    114 HBL          0.9630     1.4230    -0.3010 hc         1 QUX       0.035700
    115 HBLA         1.1200     0.2060     0.9460 hc         1 QUX       0.035700
    116 HBM          2.3770    -1.2630    -0.6480 hc         1 QUX       0.040200
    117 HBMA         2.2270    -0.0400    -1.8910 hc         1 QUX       0.040200
    118 HBN          3.4850     1.5770    -0.4500 hc         1 QUX       0.036200
    119 HBNA         3.6300     0.3570     0.7940 hc         1 QUX       0.036200
    120 HBO          4.9290    -1.0950    -0.7810 hc         1 QUX       0.038200
    121 HBOA         4.7910     0.1310    -2.0230 hc         1 QUX       0.038200
    122 HBP          6.0080     1.7550    -0.5580 hc         1 QUX       0.036700
    123 HBPA         6.1330     0.5370     0.6910 hc         1 QUX       0.036700
    124 HBQ          7.4800    -0.9060    -0.8510 hc         1 QUX       0.037700
    125 HBQA         7.3660     0.3190    -2.0960 hc         1 QUX       0.037700
    126 HBR          8.5320     1.9510    -0.5990 hc         1 QUX       0.036700
    127 HBRA         8.6300     0.7350     0.6540 hc         1 QUX       0.036700
    128 HBS         10.0300    -0.7000    -0.8480 hc         1 QUX       0.037700
    129 HBSA         9.9450     0.5240    -2.0960 hc         1 QUX       0.037700
    130 HBT         11.0560     2.1640    -0.5650 hc         1 QUX       0.036700
    131 HBTA        11.1250     0.9480     0.6900 hc         1 QUX       0.036700
    132 HBU         12.5770    -0.4770    -0.7740 hc         1 QUX       0.037700
    133 HBUA        12.5180     0.7480    -2.0230 hc         1 QUX       0.037700
    134 HBV         13.5760     2.3930    -0.4600 hc         1 QUX       0.036700
    135 HBVA        13.6250     1.1740     0.7920 hc         1 QUX       0.036700
    136 HBW         15.1190    -0.2370    -0.6400 hc         1 QUX       0.037700
    137 HBWA        15.0790     0.9880    -1.8890 hc         1 QUX       0.037700
    138 HBX         16.0950     2.6380    -0.3030 hc         1 QUX       0.036700
    139 HBXA        16.1290     1.4160     0.9480 hc         1 QUX       0.036700
    140 HBY         17.6540     0.0160    -0.4630 hc         1 QUX       0.037200
    141 HBYA        17.6250     1.2420    -1.7110 hc         1 QUX       0.037200
    142 HBZ         18.6130     2.8960    -0.1100 hc         1 QUX       0.036700
    143 HBZA        18.6370     1.6720     1.1390 hc         1 QUX       0.036700
    144 HCA         20.1840     0.2800    -0.2560 hc         1 QUX       0.036700
    145 HCAA        20.1620     1.5070    -1.5030 hc         1 QUX       0.036700
    146 HCB         21.1300     3.1620     0.1080 hc         1 QUX       0.036700
    147 HCBA        21.1480     1.9370     1.3560 hc         1 QUX       0.036700
    148 HCC         22.7090     0.5510    -0.0290 hc         1 QUX       0.036700
    149 HCCA        22.6920     1.7790    -1.2750 hc         1 QUX       0.036700
    150 HCD         23.6450     3.4350     0.3450 hc         1 QUX       0.036700
    151 HCDA        23.6610     2.2070     1.5900 hc         1 QUX       0.036700
    152 HCE         25.2310     0.8280     0.2090 hc         1 QUX       0.036700
    153 HCEA        25.2170     2.0580    -1.0350 hc         1 QUX       0.036700
    154 HCF         26.1610     3.7130     0.5920 hc         1 QUX       0.036700
    155 HCFA        26.1750     2.4830     1.8350 hc         1 QUX       0.036700
    156 HCG         27.7510     1.1100     0.4580 hc         1 QUX       0.036700
    157 HCGA        27.7370     2.3400    -0.7850 hc         1 QUX       0.036700
    158 HCH         28.7140     3.9990     0.8360 hc         1 QUX       0.031367
    159 HCHA        28.7260     2.7630     2.0890 hc         1 QUX       0.031367
    160 HCHB        29.7530     2.5860     0.6690 hc         1 QUX       0.031367
    161 O5M         -8.6020    -4.3890     1.0350 oh         1 QUX      -0.711000
@<TRIPOS>BOND
     1     1     2 1   
     2     1    10 1   
     3     1    11 1   
     4     1    60 1   
     5     2     3 1   
     6     2     4 1   
     7     2    61 1   
     8     3    62 1   
     9     4     5 1   
    10     4     6 1   
    11     4    63 1   
    12     5    64 1   
    13     6     7 1   
    14     6     8 1   
    15     6    65 1   
    16     7    66 1   
    17     8     9 1   
    18     8    10 1   
    19     8    67 1   
    20     9    69 1   
    21     9    70 1   
    22     9   161 1   
    23    11    12 1   
    24    11    71 1   
    25    11    72 1   
    26    12    13 1   
    27    12    73 1   
    28    12    74 1   
    29    13    14 1   
    30    13    32 1   
    31    13    75 1   
    32    14    15 1   
    33    14    30 1   
    34    14    76 1   
    35    15    16 1   
    36    15    31 1   
    37    15    77 1   
    38    16    17 1   
    39    16    78 1   
    40    16    79 1   
    41    17    18 1   
    42    17    80 1   
    43    17    81 1   
    44    18    19 1   
    45    18    82 1   
    46    18    83 1   
    47    19    20 1   
    48    19    84 1   
    49    19    85 1   
    50    20    21 1   
    51    20    86 1   
    52    20    87 1   
    53    21    22 1   
    54    21    88 1   
    55    21    89 1   
    56    22    23 1   
    57    22    90 1   
    58    22    91 1   
    59    23    24 1   
    60    23    92 1   
    61    23    93 1   
    62    24    25 1   
    63    24    94 1   
    64    24    95 1   
    65    25    26 1   
    66    25    96 1   
    67    25    97 1   
    68    26    27 1   
    69    26    98 1   
    70    26    99 1   
    71    27    28 1   
    72    27   100 1   
    73    27   101 1   
    74    28    29 1   
    75    28   102 1   
    76    28   103 1   
    77    29   104 1   
    78    29   105 1   
    79    29   106 1   
    80    30   107 1   
    81    31   108 1   
    82    32    33 1   
    83    32   109 1   
    84    33    34 2   
    85    33    35 1   
    86    35    36 1   
    87    35   110 1   
    88    35   111 1   
    89    36    37 1   
    90    36   112 1   
    91    36   113 1   
    92    37    38 1   
    93    37   114 1   
    94    37   115 1   
    95    38    39 1   
    96    38   116 1   
    97    38   117 1   
    98    39    40 1   
    99    39   118 1   
   100    39   119 1   
   101    40    41 1   
   102    40   120 1   
   103    40   121 1   
   104    41    42 1   
   105    41   122 1   
   106    41   123 1   
   107    42    43 1   
   108    42   124 1   
   109    42   125 1   
   110    43    44 1   
   111    43   126 1   
   112    43   127 1   
   113    44    45 1   
   114    44   128 1   
   115    44   129 1   
   116    45    46 1   
   117    45   130 1   
   118    45   131 1   
   119    46    47 1   
   120    46   132 1   
   121    46   133 1   
   122    47    48 1   
   123    47   134 1   
   124    47   135 1   
   125    48    49 1   
   126    48   136 1   
   127    48   137 1   
   128    49    50 1   
   129    49   138 1   
   130    49   139 1   
   131    50    51 1   
   132    50   140 1   
   133    50   141 1   
   134    51    52 1   
   135    51   142 1   
   136    51   143 1   
   137    52    53 1   
   138    52   144 1   
   139    52   145 1   
   140    53    54 1   
   141    53   146 1   
   142    53   147 1   
   143    54    55 1   
   144    54   148 1   
   145    54   149 1   
   146    55    56 1   
   147    55   150 1   
   148    55   151 1   
   149    56    57 1   
   150    56   152 1   
   151    56   153 1   
   152    57    58 1   
   153    57   154 1   
   154    57   155 1   
   155    58    59 1   
   156    58   156 1   
   157    58   157 1   
   158    59   158 1   
   159    59   159 1   
   160    59   160 1   
   161    68   161 1   
@<TRIPOS>SUBSTRUCTURE
     1 QUX         1 TEMP              0 ****  ****    0 ROOT
