@<TRIPOS>MOLECULE
QUY
  172   173     1     0     0
SMALL
No Charge or Current Charge


@<TRIPOS>ATOM
      1 CAA         27.5300    -2.8240    -1.3360 c3         1 QUY      -0.088100
      2 CAB         26.3310    -2.5440    -0.4090 c3         1 QUY      -0.074400
      3 CAC         24.9760    -2.5700    -1.1490 c3         1 QUY      -0.075400
      4 CAD         23.7740    -2.2890    -0.2200 c3         1 QUY      -0.074400
      5 CAE         22.4190    -2.3150    -0.9600 c3         1 QUY      -0.074400
      6 CAF         21.2170    -2.0350    -0.0310 c3         1 QUY      -0.074400
      7 CAG         19.8620    -2.0610    -0.7710 c3         1 QUY      -0.074400
      8 CAH         18.6610    -1.7810     0.1580 c3         1 QUY      -0.074400
      9 CAI         17.3060    -1.8070    -0.5830 c3         1 QUY      -0.074400
     10 CAJ         16.1040    -1.5270     0.3460 c3         1 QUY      -0.074400
     11 CAK         14.7490    -1.5530    -0.3940 c3         1 QUY      -0.074400
     12 CAL         13.5470    -1.2740     0.5340 c3         1 QUY      -0.074400
     13 CAM         12.1920    -1.3000    -0.2060 c3         1 QUY      -0.074400
     14 CAN         10.9900    -1.0210     0.7230 c3         1 QUY      -0.074400
     15 CAO          9.6350    -1.0470    -0.0180 c3         1 QUY      -0.073400
     16 CAP          8.4330    -0.7680     0.9110 c3         1 QUY      -0.075400
     17 CAQ          7.0780    -0.7940     0.1700 c3         1 QUY      -0.073400
     18 CAR          5.8770    -0.5140     1.0990 c3         1 QUY      -0.075400
     19 CAS          4.5230    -0.5340     0.3560 c3         1 QUY      -0.073400
     20 CAT          3.3250    -0.2150     1.2760 c3         1 QUY      -0.076400
     21 CAU          1.9750    -0.2150     0.5280 c3         1 QUY      -0.075400
     22 CAV          0.7830     0.1930     1.4210 c3         1 QUY      -0.074400
     23 CAW         -0.5830    -0.0220     0.7330 c3         1 QUY      -0.075400
     24 CAX         -1.7820     0.4180     1.6000 c3         1 QUY      -0.068400
     25 CAY         -3.1430    -0.0110     1.0000 c3         1 QUY      -0.156400
     26 CAZ         -4.3240     0.5510     1.7990 c          1 QUY       0.611100
     27 OBA         -4.6080     0.1620     2.9230 o          1 QUY      -0.601100
     28 NBB         -5.0500     1.5130     1.1390 ns         1 QUY      -0.497900
     29 CBC         -6.2230     2.2230     1.6720 c3         1 QUY       0.084700
     30 CBD         -7.5810     1.7820     1.0180 c3         1 QUY       0.120300
     31 OBE         -8.6490     2.4730     1.7030 oh         1 QUY      -0.643000
     32 CBF         -7.8610     0.2300     1.0190 c3         1 QUY       0.137300
     33 OBG         -6.9420    -0.4560     0.1510 oh         1 QUY      -0.647000
     34 CBH         -9.3040    -0.1490     0.5720 c3         1 QUY      -0.106400
     35 CBI         -9.6140    -1.6660     0.6310 c3         1 QUY      -0.072400
     36 CBJ        -11.0730    -1.9970     0.2450 c3         1 QUY      -0.075400
     37 CBK        -11.3860    -3.5090     0.3030 c3         1 QUY      -0.074400
     38 CBL        -12.8440    -3.8390    -0.0830 c3         1 QUY      -0.074400
     39 CBM        -13.1570    -5.3510    -0.0250 c3         1 QUY      -0.074400
     40 CBN        -14.6150    -5.6810    -0.4110 c3         1 QUY      -0.073400
     41 CBO        -14.9280    -7.1930    -0.3530 c3         1 QUY      -0.074400
     42 CBP        -16.3860    -7.5230    -0.7390 c3         1 QUY      -0.074400
     43 CBQ        -16.6990    -9.0350    -0.6810 c3         1 QUY      -0.074400
     44 CBR        -18.1570    -9.3650    -1.0670 c3         1 QUY      -0.074400
     45 CBS        -18.4700   -10.8770    -1.0090 c3         1 QUY      -0.075400
     46 CBT        -19.9280   -11.2080    -1.3940 c3         1 QUY      -0.075400
     47 CBU        -20.2400   -12.7160    -1.3380 c3         1 QUY      -0.088100
     48 CBV         -5.9630     3.7470     1.5510 c3         1 QUY       0.151600
     49 OBW         -5.6390     4.0380     0.1740 os         1 QUY      -0.482000
     50 CBX         -5.1400     5.3600    -0.1050 c6         1 QUY       0.354300
     51 OBY         -3.8830     5.5650     0.5780 os         1 QUY      -0.433000
     52 CBZ         -4.9640     5.5550    -1.6470 c6         1 QUY       0.117300
     53 OCA         -6.1910     5.2620    -2.3640 oh         1 QUY      -0.713000
     54 CCB         -3.8100     4.6440    -2.1760 c6         1 QUY       0.185300
     55 OCC         -3.5910     4.8970    -3.5760 oh         1 QUY      -0.643000
     56 CCD         -2.4890     4.8530    -1.3720 c6         1 QUY       0.158300
     57 OCE         -1.9420     6.1520    -1.6680 oh         1 QUY      -0.689000
     58 CCF         -2.7930     4.6930     0.1500 c6         1 QUY       0.052300
     59 CDA         -1.5470     4.7880     1.0850 c          1 QUY       0.598100
     60 NDA         -0.3260     4.4330     0.5460 ns         1 QUY      -0.517900
     61 ODA         -1.6280     5.1860     2.2410 o          1 QUY      -0.558100
     62 CDB          0.9490     4.5690     1.2470 c3         1 QUY       0.150300
     63 CDC          2.1380     4.2360     0.3540 ca         1 QUY      -0.115300
     64 CDD          3.2100     3.4820     0.8700 ca         1 QUY      -0.099000
     65 CDE          4.3190     3.1760     0.0620 ca         1 QUY      -0.110000
     66 CDF          4.3650     3.6210    -1.2690 ca         1 QUY      -0.102000
     67 CDG          3.3060     4.3840    -1.7880 ca         1 QUY      -0.110000
     68 CDH          2.1990     4.6960    -0.9790 ca         1 QUY      -0.099000
     69 HAA         27.4400    -3.8140    -1.7990 hc         1 QUY       0.031367
     70 HAAA        27.5890    -2.0720    -2.1330 hc         1 QUY       0.031367
     71 HAAB        28.4670    -2.7950    -0.7670 hc         1 QUY       0.031367
     72 HAB         26.3210    -3.2900     0.3950 hc         1 QUY       0.036700
     73 HABA        26.4680    -1.5640     0.0640 hc         1 QUY       0.036700
     74 HAC         24.9910    -1.8240    -1.9540 hc         1 QUY       0.036700
     75 HACA        24.8430    -3.5500    -1.6230 hc         1 QUY       0.036700
     76 HAD         23.7590    -3.0350     0.5850 hc         1 QUY       0.036700
     77 HADA        23.9070    -1.3090     0.2540 hc         1 QUY       0.036700
     78 HAE         22.4340    -1.5700    -1.7650 hc         1 QUY       0.036700
     79 HAEA        22.2860    -3.2960    -1.4340 hc         1 QUY       0.036700
     80 HAF         21.2030    -2.7810     0.7730 hc         1 QUY       0.037200
     81 HAFA        21.3500    -1.0540     0.4430 hc         1 QUY       0.037200
     82 HAG         19.8770    -1.3150    -1.5760 hc         1 QUY       0.036700
     83 HAGA        19.7300    -3.0420    -1.2460 hc         1 QUY       0.036700
     84 HAH         18.6460    -2.5270     0.9620 hc         1 QUY       0.037200
     85 HAHA        18.7930    -0.8010     0.6320 hc         1 QUY       0.037200
     86 HAI         17.3200    -1.0610    -1.3870 hc         1 QUY       0.036700
     87 HAIA        17.1730    -2.7870    -1.0570 hc         1 QUY       0.036700
     88 HAJ         16.0890    -2.2740     1.1500 hc         1 QUY       0.037200
     89 HAJA        16.2360    -0.5470     0.8210 hc         1 QUY       0.037200
     90 HAK         14.7640    -0.8070    -1.1990 hc         1 QUY       0.037200
     91 HAKA        14.6170    -2.5330    -0.8690 hc         1 QUY       0.037200
     92 HAL         13.5320    -2.0200     1.3390 hc         1 QUY       0.037700
     93 HALA        13.6790    -0.2940     1.0090 hc         1 QUY       0.037700
     94 HAM         12.2070    -0.5530    -1.0100 hc         1 QUY       0.037200
     95 HAMA        12.0600    -2.2800    -0.6810 hc         1 QUY       0.037200
     96 HAN         10.9750    -1.7680     1.5270 hc         1 QUY       0.037200
     97 HANA        11.1220    -0.0410     1.1980 hc         1 QUY       0.037200
     98 HAO          9.6500    -0.3000    -0.8220 hc         1 QUY       0.037200
     99 HAOA         9.5030    -2.0270    -0.4930 hc         1 QUY       0.037200
    100 HAP          8.4180    -1.5150     1.7150 hc         1 QUY       0.037200
    101 HAPA         8.5650     0.2120     1.3870 hc         1 QUY       0.037200
    102 HAQ          7.0940    -0.0470    -0.6330 hc         1 QUY       0.037200
    103 HAQA         6.9460    -1.7740    -0.3050 hc         1 QUY       0.037200
    104 HAR          5.8590    -1.2620     1.9020 hc         1 QUY       0.037200
    105 HARA         6.0120     0.4650     1.5770 hc         1 QUY       0.037200
    106 HAS          4.5510     0.1940    -0.4640 hc         1 QUY       0.036700
    107 HASA         4.3760    -1.5220    -0.0980 hc         1 QUY       0.036700
    108 HAT          3.2870    -0.9540     2.0870 hc         1 QUY       0.036700
    109 HATA         3.4810     0.7610     1.7470 hc         1 QUY       0.036700
    110 HAU          2.0310     0.4710    -0.3260 hc         1 QUY       0.039200
    111 HAUA         1.7970    -1.2190     0.1210 hc         1 QUY       0.039200
    112 HAV          0.8080    -0.3930     2.3490 hc         1 QUY       0.039200
    113 HAVA         0.8890     1.2480     1.7050 hc         1 QUY       0.039200
    114 HAW         -0.6030     0.5290    -0.2170 hc         1 QUY       0.036700
    115 HAWA        -0.6890    -1.0860     0.4870 hc         1 QUY       0.036700
    116 HAX         -1.6850    -0.0120     2.6050 hc         1 QUY       0.054700
    117 HAXA        -1.7590     1.5100     1.7160 hc         1 QUY       0.054700
    118 HAY         -3.1960     0.3370    -0.0390 hc         1 QUY       0.053200
    119 HAYA        -3.2000    -1.1050     1.0180 hc         1 QUY       0.053200
    120 HNBB        -4.7430     1.7550     0.2060 hn         1 QUY       0.309500
    121 HBC         -6.2950     2.0000     2.7450 h1         1 QUY       0.088700
    122 HBD         -7.5590     2.1070    -0.0310 h1         1 QUY       0.083700
    123 HOBE        -8.7590     2.0580     2.5860 ho         1 QUY       0.439000
    124 HBF         -7.7230    -0.1280     2.0490 h1         1 QUY       0.077700
    125 HOBG        -7.2530    -0.3190    -0.7680 ho         1 QUY       0.434000
    126 HBH        -10.0290     0.3630     1.2160 hc         1 QUY       0.049700
    127 HBHA        -9.4790     0.2190    -0.4470 hc         1 QUY       0.049700
    128 HBI         -8.9390    -2.2100    -0.0420 hc         1 QUY       0.044700
    129 HBIA        -9.4190    -2.0340     1.6460 hc         1 QUY       0.044700
    130 HBJ        -11.7550    -1.4630     0.9190 hc         1 QUY       0.036700
    131 HBJA       -11.2700    -1.6270    -0.7690 hc         1 QUY       0.036700
    132 HBK        -10.7050    -4.0430    -0.3720 hc         1 QUY       0.038200
    133 HBKA       -11.1880    -3.8790     1.3170 hc         1 QUY       0.038200
    134 HBL        -13.5250    -3.3050     0.5920 hc         1 QUY       0.037200
    135 HBLA       -13.0420    -3.4690    -1.0970 hc         1 QUY       0.037200
    136 HBM        -12.4760    -5.8850    -0.7000 hc         1 QUY       0.037200
    137 HBMA       -12.9600    -5.7210     0.9890 hc         1 QUY       0.037200
    138 HBN        -15.2960    -5.1470     0.2640 hc         1 QUY       0.037200
    139 HBNA       -14.8130    -5.3110    -1.4250 hc         1 QUY       0.037200
    140 HBO        -14.2470    -7.7270    -1.0280 hc         1 QUY       0.037200
    141 HBOA       -14.7300    -7.5630     0.6610 hc         1 QUY       0.037200
    142 HBP        -17.0670    -6.9890    -0.0640 hc         1 QUY       0.036700
    143 HBPA       -16.5840    -7.1530    -1.7520 hc         1 QUY       0.036700
    144 HBQ        -16.0180    -9.5690    -1.3560 hc         1 QUY       0.036700
    145 HBQA       -16.5010    -9.4050     0.3330 hc         1 QUY       0.036700
    146 HBR        -18.8380    -8.8310    -0.3920 hc         1 QUY       0.036700
    147 HBRA       -18.3550    -8.9950    -2.0800 hc         1 QUY       0.036700
    148 HBS        -17.7890   -11.4110    -1.6840 hc         1 QUY       0.036700
    149 HBSA       -18.2720   -11.2470     0.0050 hc         1 QUY       0.036700
    150 HBT        -20.6120   -10.6770    -0.7200 hc         1 QUY       0.036700
    151 HBTA       -20.1290   -10.8410    -2.4090 hc         1 QUY       0.036700
    152 HBU        -19.5950   -13.2720    -2.0290 hc         1 QUY       0.031367
    153 HBUA       -20.0830   -13.1070    -0.3250 hc         1 QUY       0.031367
    154 HBUB       -21.2840   -12.9010    -1.6180 hc         1 QUY       0.031367
    155 HBV         -6.8370     4.3220     1.8820 h1         1 QUY       0.049700
    156 HBVA        -5.1230     4.0050     2.2090 h1         1 QUY       0.049700
    157 HBX         -5.8680     6.1010     0.2590 h2         1 QUY       0.076700
    158 HBZ         -4.6770     6.6040    -1.8120 h1         1 QUY       0.081700
    159 HOCA        -6.6280     4.5300    -1.8640 ho         1 QUY       0.513000
    160 HCB         -4.1170     3.5950    -2.0410 h1         1 QUY       0.044700
    161 HOCC        -4.4920     4.9800    -3.9640 ho         1 QUY       0.459000
    162 HCD         -1.7840     4.0690    -1.6830 h1         1 QUY       0.045700
    163 HOCE        -2.0820     6.2700    -2.6380 ho         1 QUY       0.513000
    164 HCF         -3.1260     3.6550     0.2920 h1         1 QUY       0.050700
    165 HNDA        -0.3100     4.1370    -0.4200 hn         1 QUY       0.314500
    166 HDB          1.0480     5.6010     1.6080 h1         1 QUY       0.060700
    167 HDBA         0.9390     3.9030     2.1210 h1         1 QUY       0.060700
    168 HDD          3.1870     3.1370     1.9010 ha         1 QUY       0.115000
    169 HDE          5.1440     2.5950     0.4690 ha         1 QUY       0.117000
    170 HDF          5.2230     3.3820    -1.8940 ha         1 QUY       0.116000
    171 HDG          3.3450     4.7380    -2.8160 ha         1 QUY       0.117000
    172 HDH          1.3930     5.3000    -1.3910 ha         1 QUY       0.115000
@<TRIPOS>BOND
     1     1     2 1   
     2     1    69 1   
     3     1    70 1   
     4     1    71 1   
     5     2     3 1   
     6     2    72 1   
     7     2    73 1   
     8     3     4 1   
     9     3    74 1   
    10     3    75 1   
    11     4     5 1   
    12     4    76 1   
    13     4    77 1   
    14     5     6 1   
    15     5    78 1   
    16     5    79 1   
    17     6     7 1   
    18     6    80 1   
    19     6    81 1   
    20     7     8 1   
    21     7    82 1   
    22     7    83 1   
    23     8     9 1   
    24     8    84 1   
    25     8    85 1   
    26     9    10 1   
    27     9    86 1   
    28     9    87 1   
    29    10    11 1   
    30    10    88 1   
    31    10    89 1   
    32    11    12 1   
    33    11    90 1   
    34    11    91 1   
    35    12    13 1   
    36    12    92 1   
    37    12    93 1   
    38    13    14 1   
    39    13    94 1   
    40    13    95 1   
    41    14    15 1   
    42    14    96 1   
    43    14    97 1   
    44    15    16 1   
    45    15    98 1   
    46    15    99 1   
    47    16    17 1   
    48    16   100 1   
    49    16   101 1   
    50    17    18 1   
    51    17   102 1   
    52    17   103 1   
    53    18    19 1   
    54    18   104 1   
    55    18   105 1   
    56    19    20 1   
    57    19   106 1   
    58    19   107 1   
    59    20    21 1   
    60    20   108 1   
    61    20   109 1   
    62    21    22 1   
    63    21   110 1   
    64    21   111 1   
    65    22    23 1   
    66    22   112 1   
    67    22   113 1   
    68    23    24 1   
    69    23   114 1   
    70    23   115 1   
    71    24    25 1   
    72    24   116 1   
    73    24   117 1   
    74    25    26 1   
    75    25   118 1   
    76    25   119 1   
    77    26    27 2   
    78    26    28 1   
    79    28    29 1   
    80    28   120 1   
    81    29    30 1   
    82    29    48 1   
    83    29   121 1   
    84    30    31 1   
    85    30    32 1   
    86    30   122 1   
    87    31   123 1   
    88    32    33 1   
    89    32    34 1   
    90    32   124 1   
    91    33   125 1   
    92    34    35 1   
    93    34   126 1   
    94    34   127 1   
    95    35    36 1   
    96    35   128 1   
    97    35   129 1   
    98    36    37 1   
    99    36   130 1   
   100    36   131 1   
   101    37    38 1   
   102    37   132 1   
   103    37   133 1   
   104    38    39 1   
   105    38   134 1   
   106    38   135 1   
   107    39    40 1   
   108    39   136 1   
   109    39   137 1   
   110    40    41 1   
   111    40   138 1   
   112    40   139 1   
   113    41    42 1   
   114    41   140 1   
   115    41   141 1   
   116    42    43 1   
   117    42   142 1   
   118    42   143 1   
   119    43    44 1   
   120    43   144 1   
   121    43   145 1   
   122    44    45 1   
   123    44   146 1   
   124    44   147 1   
   125    45    46 1   
   126    45   148 1   
   127    45   149 1   
   128    46    47 1   
   129    46   150 1   
   130    46   151 1   
   131    47   152 1   
   132    47   153 1   
   133    47   154 1   
   134    48    49 1   
   135    48   155 1   
   136    48   156 1   
   137    49    50 1   
   138    50    51 1   
   139    50    52 1   
   140    50   157 1   
   141    51    58 1   
   142    52    53 1   
   143    52    54 1   
   144    52   158 1   
   145    53   159 1   
   146    54    55 1   
   147    54    56 1   
   148    54   160 1   
   149    55   161 1   
   150    56    57 1   
   151    56    58 1   
   152    56   162 1   
   153    57   163 1   
   154    58    59 1   
   155    58   164 1   
   156    59    60 1   
   157    59    61 2   
   158    60    62 1   
   159    60   165 1   
   160    62    63 1   
   161    62   166 1   
   162    62   167 1   
   163    63    64 ar  
   164    63    68 ar  
   165    64    65 ar  
   166    64   168 1   
   167    65    66 ar  
   168    65   169 1   
   169    66    67 ar  
   170    66   170 1   
   171    67    68 ar  
   172    67   171 1   
   173    68   172 1   
@<TRIPOS>SUBSTRUCTURE
     1 QUY         1 TEMP              0 ****  ****    0 ROOT
