@<TRIPOS>MOLECULE
QUY
  172   173     1     0     0
SMALL
bcc


@<TRIPOS>ATOM
      1 CAA         27.0430    -3.2700    -1.0210 c3         1 QUY      -0.088100
      2 CAB         25.8230    -3.2440    -0.1120 c3         1 QUY      -0.074400
      3 CAC         24.5150    -3.1310    -0.8850 c3         1 QUY      -0.075400
      4 CAD         23.2820    -3.1000     0.0090 c3         1 QUY      -0.074400
      5 CAE         21.9790    -2.9730    -0.7700 c3         1 QUY      -0.074400
      6 CAF         20.7420    -2.9330     0.1200 c3         1 QUY      -0.074400
      7 CAG         19.4440    -2.7930    -0.6640 c3         1 QUY      -0.074400
      8 CAH         18.2050    -2.7390     0.2210 c3         1 QUY      -0.074400
      9 CAI         16.9100    -2.5890    -0.5690 c3         1 QUY      -0.074400
     10 CAJ         15.6690    -2.5150     0.3120 c3         1 QUY      -0.074400
     11 CAK         14.3790    -2.3560    -0.4820 c3         1 QUY      -0.074400
     12 CAL         13.1380    -2.2540     0.3960 c3         1 QUY      -0.074400
     13 CAM         11.8500    -2.0860    -0.4010 c3         1 QUY      -0.074400
     14 CAN         10.6130    -1.9470     0.4780 c3         1 QUY      -0.074400
     15 CAO          9.3240    -1.7690    -0.3150 c3         1 QUY      -0.073400
     16 CAP          8.1010    -1.5730     0.5710 c3         1 QUY      -0.075400
     17 CAQ          6.8030    -1.3860    -0.2070 c3         1 QUY      -0.073400
     18 CAR          5.6120    -1.1030     0.6980 c3         1 QUY      -0.075400
     19 CAS          4.2970    -0.9020    -0.0460 c3         1 QUY      -0.073400
     20 CAT          3.1550    -0.5210     0.8870 c3         1 QUY      -0.076400
     21 CAU          1.8210    -0.2970     0.1870 c3         1 QUY      -0.075400
     22 CAV          0.7480     0.2160     1.1380 c3         1 QUY      -0.074400
     23 CAW         -0.5800     0.5220     0.4580 c3         1 QUY      -0.075400
     24 CAX         -1.6310     1.0240     1.4400 c3         1 QUY      -0.068400
     25 CAY         -2.9940     1.2220     0.7910 c3         1 QUY      -0.156400
     26 CAZ         -4.0640     1.6580     1.7690 c          1 QUY       0.678100
     27 OBA         -4.0860     1.2640     2.9260 o          1 QUY      -0.601100
     28 NBB         -4.9770     2.5060     1.2620 ns         1 QUY      -0.564900
     29 CBC         -6.1700     2.9290     1.9570 c3         1 QUY       0.084700
     30 CBD         -7.4530     2.3270     1.3430 c3         1 QUY       0.097100
     31 OBE         -8.5840     2.9170     1.9450 oh         1 QUY      -0.580800
     32 CBF         -7.5330     0.7880     1.4350 c3         1 QUY       0.114100
     33 OBG         -6.4660     0.1600     0.7560 oh         1 QUY      -0.584800
     34 CBH         -8.8820     0.2650     0.9390 c3         1 QUY      -0.106400
     35 CBI         -9.0040    -1.2520     1.0120 c3         1 QUY      -0.072400
     36 CBJ        -10.3610    -1.7540     0.5330 c3         1 QUY      -0.075400
     37 CBK        -10.4880    -3.2710     0.5880 c3         1 QUY      -0.074400
     38 CBL        -11.8340    -3.7850     0.0920 c3         1 QUY      -0.074400
     39 CBM        -11.9530    -5.3020     0.1430 c3         1 QUY      -0.074400
     40 CBN        -13.2940    -5.8230    -0.3590 c3         1 QUY      -0.073400
     41 CBO        -13.4050    -7.3410    -0.3070 c3         1 QUY      -0.074400
     42 CBP        -14.7430    -7.8680    -0.8110 c3         1 QUY      -0.074400
     43 CBQ        -14.8490    -9.3860    -0.7570 c3         1 QUY      -0.074400
     44 CBR        -16.1860    -9.9180    -1.2590 c3         1 QUY      -0.074400
     45 CBS        -16.2870   -11.4370    -1.2040 c3         1 QUY      -0.075400
     46 CBT        -17.6250   -11.9730    -1.7000 c3         1 QUY      -0.075400
     47 CBU        -17.7120   -13.4920    -1.6400 c3         1 QUY      -0.088100
     48 CBV         -6.1950     4.4500     1.9990 c3         1 QUY       0.128400
     49 OBW         -6.2160     4.9190     0.6640 os         1 QUY      -0.435600
     50 CBX         -5.9540     6.2710     0.5020 c6         1 QUY       0.307900
     51 OBY         -4.6280     6.5990     0.8340 os         1 QUY      -0.386600
     52 CBZ         -6.2390     6.6440    -0.9570 c6         1 QUY       0.094100
     53 OCA         -7.5240     6.2440    -1.3610 oh         1 QUY      -0.590800
     54 CCB         -5.2250     5.9640    -1.8730 c6         1 QUY       0.162100
     55 OCC         -5.3930     6.3410    -3.2140 oh         1 QUY      -0.580800
     56 CCD         -3.8070     6.3200    -1.4410 c6         1 QUY       0.135100
     57 OCE         -3.5970     7.6880    -1.6680 oh         1 QUY      -0.566800
     58 CCF         -3.6600     5.9570     0.0470 c6         1 QUY       0.029100
     59 CDA         -2.2980     6.3870     0.5760 c          1 QUY       0.665100
     60 NDA         -1.3110     5.5210     0.2930 ns         1 QUY      -0.584900
     61 ODA         -2.1200     7.4390     1.1600 o          1 QUY      -0.558100
     62 CDB          0.0680     5.7520     0.6790 c3         1 QUY       0.150300
     63 CDC          0.9920     4.8280    -0.0650 ca         1 QUY      -0.115300
     64 CDD          1.8350     3.9660     0.6280 ca         1 QUY      -0.117000
     65 CDE          2.7110     3.1330    -0.0560 ca         1 QUY      -0.128000
     66 CDF          2.7440     3.1440    -1.4420 ca         1 QUY      -0.120000
     67 CDG          1.8990     3.9960    -2.1430 ca         1 QUY      -0.128000
     68 CDH          1.0320     4.8350    -1.4590 ca         1 QUY      -0.117000
     69 HAA         27.0060    -4.1210    -1.7040 hc         1 QUY       0.031367
     70 HAAA        27.0990    -2.3640    -1.6280 hc         1 QUY       0.031367
     71 HAAB        27.9710    -3.3430    -0.4520 hc         1 QUY       0.031367
     72 HAB         25.8030    -4.1480     0.5050 hc         1 QUY       0.036700
     73 HABA        25.9030    -2.4040     0.5860 hc         1 QUY       0.036700
     74 HAC         24.5370    -2.2260    -1.5030 hc         1 QUY       0.036700
     75 HACA        24.4330    -3.9710    -1.5850 hc         1 QUY       0.036700
     76 HAD         23.2530    -4.0080     0.6220 hc         1 QUY       0.036700
     77 HADA        23.3670    -2.2640     0.7130 hc         1 QUY       0.036700
     78 HAE         22.0110    -2.0660    -1.3850 hc         1 QUY       0.036700
     79 HAEA        21.8920    -3.8100    -1.4720 hc         1 QUY       0.036700
     80 HAF         20.7040    -3.8420     0.7310 hc         1 QUY       0.037200
     81 HAFA        20.8320    -2.0990     0.8250 hc         1 QUY       0.037200
     82 HAG         19.4880    -1.8880    -1.2800 hc         1 QUY       0.036700
     83 HAGA        19.3510    -3.6300    -1.3660 hc         1 QUY       0.036700
     84 HAH         18.1550    -3.6460     0.8340 hc         1 QUY       0.037200
     85 HAHA        18.3000    -1.9030     0.9240 hc         1 QUY       0.037200
     86 HAI         16.9670    -1.6880    -1.1900 hc         1 QUY       0.036700
     87 HAIA        16.8100    -3.4290    -1.2660 hc         1 QUY       0.036700
     88 HAJ         15.6070    -3.4170     0.9310 hc         1 QUY       0.037200
     89 HAJA        15.7720    -1.6760     1.0100 hc         1 QUY       0.037200
     90 HAK         14.4490    -1.4610    -1.1120 hc         1 QUY       0.037200
     91 HAKA        14.2690    -3.2010    -1.1710 hc         1 QUY       0.037200
     92 HAL         13.0620    -3.1480     1.0250 hc         1 QUY       0.037700
     93 HALA        13.2510    -1.4090     1.0850 hc         1 QUY       0.037700
     94 HAM         11.9360    -1.2040    -1.0450 hc         1 QUY       0.037200
     95 HAMA        11.7240    -2.9400    -1.0750 hc         1 QUY       0.037200
     96 HAN         10.5230    -2.8270     1.1240 hc         1 QUY       0.037200
     97 HANA        10.7440    -1.0920     1.1510 hc         1 QUY       0.037200
     98 HAO          9.4270    -0.9080    -0.9850 hc         1 QUY       0.037200
     99 HAOA         9.1720    -2.6390    -0.9640 hc         1 QUY       0.037200
    100 HAP          7.9970    -2.4290     1.2470 hc         1 QUY       0.037200
    101 HAPA         8.2610    -0.7010     1.2150 hc         1 QUY       0.037200
    102 HAQ          6.9220    -0.5620    -0.9190 hc         1 QUY       0.037200
    103 HAQA         6.6070    -2.2800    -0.8090 hc         1 QUY       0.037200
    104 HAR          5.4970    -1.9210     1.4180 hc         1 QUY       0.037200
    105 HARA         5.8240    -0.2080     1.2940 hc         1 QUY       0.037200
    106 HAS          4.4230    -0.1170    -0.8020 hc         1 QUY       0.036700
    107 HASA         4.0410    -1.8140    -0.5940 hc         1 QUY       0.036700
    108 HAT          3.0370    -1.2940     1.6560 hc         1 QUY       0.036700
    109 HATA         3.4320     0.3930     1.4250 hc         1 QUY       0.036700
    110 HAU          1.9520     0.4260    -0.6260 hc         1 QUY       0.039200
    111 HAUA         1.4870    -1.2290    -0.2820 hc         1 QUY       0.039200
    112 HAV          0.5880    -0.5180     1.9350 hc         1 QUY       0.039200
    113 HAVA         1.1140     1.1230     1.6300 hc         1 QUY       0.039200
    114 HAW         -0.4210     1.2690    -0.3270 hc         1 QUY       0.036700
    115 HAWA        -0.9500    -0.3790    -0.0430 hc         1 QUY       0.036700
    116 HAX         -1.7240     0.3140     2.2650 hc         1 QUY       0.054700
    117 HAXA        -1.2920     1.9670     1.8830 hc         1 QUY       0.054700
    118 HAY         -2.9210     1.9290    -0.0410 hc         1 QUY       0.053200
    119 HAYA        -3.3330     0.2780     0.3510 hc         1 QUY       0.053200
    120 HNBB        -4.9250     2.7190     0.2790 hn         1 QUY       0.309500
    121 HBC         -6.0820     2.5830     2.9910 h1         1 QUY       0.088700
    122 HBD         -7.5050     2.6090     0.2840 h1         1 QUY       0.083700
    123 HOBE        -8.6060     2.6630     2.8740 ho         1 QUY       0.400000
    124 HBF         -7.4120     0.5000     2.4880 h1         1 QUY       0.077700
    125 HOBG        -6.5500     0.3560    -0.1840 ho         1 QUY       0.395000
    126 HBH         -9.6860     0.7140     1.5250 hc         1 QUY       0.049700
    127 HBHA        -9.0380     0.5970    -0.0960 hc         1 QUY       0.049700
    128 HBI         -8.2190    -1.7230     0.4150 hc         1 QUY       0.044700
    129 HBIA        -8.8400    -1.5810     2.0450 hc         1 QUY       0.044700
    130 HBJ        -11.1550    -1.3000     1.1360 hc         1 QUY       0.036700
    131 HBJA       -10.5310    -1.4130    -0.4950 hc         1 QUY       0.036700
    132 HBK         -9.6870    -3.7220    -0.0080 hc         1 QUY       0.038200
    133 HBKA       -10.3260    -3.6120     1.6170 hc         1 QUY       0.038200
    134 HBL        -12.6370    -3.3370     0.6880 hc         1 QUY       0.037200
    135 HBLA       -11.9960    -3.4430    -0.9370 hc         1 QUY       0.037200
    136 HBM        -11.1460    -5.7490    -0.4490 hc         1 QUY       0.037200
    137 HBMA       -11.7940    -5.6430     1.1730 hc         1 QUY       0.037200
    138 HBN        -14.1010    -5.3790     0.2340 hc         1 QUY       0.037200
    139 HBNA       -13.4530    -5.4830    -1.3880 hc         1 QUY       0.037200
    140 HBO        -12.5950    -7.7850    -0.8980 hc         1 QUY       0.037200
    141 HBOA       -13.2460    -7.6810     0.7230 hc         1 QUY       0.037200
    142 HBP        -15.5530    -7.4260    -0.2200 hc         1 QUY       0.036700
    143 HBPA       -14.9020    -7.5290    -1.8410 hc         1 QUY       0.036700
    144 HBQ        -14.0390    -9.8280    -1.3490 hc         1 QUY       0.036700
    145 HBQA       -14.6890    -9.7250     0.2730 hc         1 QUY       0.036700
    146 HBR        -16.9970    -9.4780    -0.6670 hc         1 QUY       0.036700
    147 HBRA       -16.3480    -9.5800    -2.2890 hc         1 QUY       0.036700
    148 HBS        -15.4780   -11.8760    -1.7990 hc         1 QUY       0.036700
    149 HBSA       -16.1220   -11.7750    -0.1750 hc         1 QUY       0.036700
    150 HBT        -18.4330   -11.5340    -1.1050 hc         1 QUY       0.036700
    151 HBTA       -17.7920   -11.6380    -2.7280 hc         1 QUY       0.036700
    152 HBU        -16.9400   -13.9530    -2.2590 hc         1 QUY       0.031367
    153 HBUA       -17.5730   -13.8550    -0.6200 hc         1 QUY       0.031367
    154 HBUB       -18.6780   -13.8540    -1.9910 hc         1 QUY       0.031367
    155 HBV         -7.0640     4.8220     2.5520 h1         1 QUY       0.049700
    156 HBVA        -5.2970     4.7900     2.5250 h1         1 QUY       0.049700
    157 HBX         -6.5690     6.8760     1.1820 h2         1 QUY       0.076700
    158 HBZ         -6.1210     7.7310    -1.0420 h1         1 QUY       0.081700
    159 HOCA        -8.1620     6.8980    -1.0600 ho         1 QUY       0.414000
    160 HCB         -5.3320     4.8750    -1.7610 h1         1 QUY       0.044700
    161 HOCC        -6.2850     6.0950    -3.4780 ho         1 QUY       0.420000
    162 HCD         -3.1030     5.7030    -2.0160 h1         1 QUY       0.045700
    163 HOCE        -2.6530     7.8680    -1.7020 ho         1 QUY       0.414000
    164 HCF         -3.7380     4.8650     0.1390 h1         1 QUY       0.050700
    165 HNDA        -1.5440     4.6170    -0.0850 hn         1 QUY       0.314500
    166 HDB          0.3210     6.7910     0.4580 h1         1 QUY       0.060700
    167 HDBA         0.1930     5.6160     1.7560 h1         1 QUY       0.060700
    168 HDD          1.8080     3.9460     1.7110 ha         1 QUY       0.133000
    169 HDE          3.3620     2.4700     0.5000 ha         1 QUY       0.135000
    170 HDF          3.4240     2.4920    -1.9760 ha         1 QUY       0.134000
    171 HDG          1.9210     4.0130    -3.2250 ha         1 QUY       0.135000
    172 HDH          0.3850     5.5040    -2.0140 ha         1 QUY       0.133000
@<TRIPOS>BOND
     1     1     2 1   
     2     1    69 1   
     3     1    70 1   
     4     1    71 1   
     5     2     3 1   
     6     2    72 1   
     7     2    73 1   
     8     3     4 1   
     9     3    74 1   
    10     3    75 1   
    11     4     5 1   
    12     4    76 1   
    13     4    77 1   
    14     5     6 1   
    15     5    78 1   
    16     5    79 1   
    17     6     7 1   
    18     6    80 1   
    19     6    81 1   
    20     7     8 1   
    21     7    82 1   
    22     7    83 1   
    23     8     9 1   
    24     8    84 1   
    25     8    85 1   
    26     9    10 1   
    27     9    86 1   
    28     9    87 1   
    29    10    11 1   
    30    10    88 1   
    31    10    89 1   
    32    11    12 1   
    33    11    90 1   
    34    11    91 1   
    35    12    13 1   
    36    12    92 1   
    37    12    93 1   
    38    13    14 1   
    39    13    94 1   
    40    13    95 1   
    41    14    15 1   
    42    14    96 1   
    43    14    97 1   
    44    15    16 1   
    45    15    98 1   
    46    15    99 1   
    47    16    17 1   
    48    16   100 1   
    49    16   101 1   
    50    17    18 1   
    51    17   102 1   
    52    17   103 1   
    53    18    19 1   
    54    18   104 1   
    55    18   105 1   
    56    19    20 1   
    57    19   106 1   
    58    19   107 1   
    59    20    21 1   
    60    20   108 1   
    61    20   109 1   
    62    21    22 1   
    63    21   110 1   
    64    21   111 1   
    65    22    23 1   
    66    22   112 1   
    67    22   113 1   
    68    23    24 1   
    69    23   114 1   
    70    23   115 1   
    71    24    25 1   
    72    24   116 1   
    73    24   117 1   
    74    25    26 1   
    75    25   118 1   
    76    25   119 1   
    77    26    27 2   
    78    26    28 1   
    79    28    29 1   
    80    28   120 1   
    81    29    30 1   
    82    29    48 1   
    83    29   121 1   
    84    30    31 1   
    85    30    32 1   
    86    30   122 1   
    87    31   123 1   
    88    32    33 1   
    89    32    34 1   
    90    32   124 1   
    91    33   125 1   
    92    34    35 1   
    93    34   126 1   
    94    34   127 1   
    95    35    36 1   
    96    35   128 1   
    97    35   129 1   
    98    36    37 1   
    99    36   130 1   
   100    36   131 1   
   101    37    38 1   
   102    37   132 1   
   103    37   133 1   
   104    38    39 1   
   105    38   134 1   
   106    38   135 1   
   107    39    40 1   
   108    39   136 1   
   109    39   137 1   
   110    40    41 1   
   111    40   138 1   
   112    40   139 1   
   113    41    42 1   
   114    41   140 1   
   115    41   141 1   
   116    42    43 1   
   117    42   142 1   
   118    42   143 1   
   119    43    44 1   
   120    43   144 1   
   121    43   145 1   
   122    44    45 1   
   123    44   146 1   
   124    44   147 1   
   125    45    46 1   
   126    45   148 1   
   127    45   149 1   
   128    46    47 1   
   129    46   150 1   
   130    46   151 1   
   131    47   152 1   
   132    47   153 1   
   133    47   154 1   
   134    48    49 1   
   135    48   155 1   
   136    48   156 1   
   137    49    50 1   
   138    50    51 1   
   139    50    52 1   
   140    50   157 1   
   141    51    58 1   
   142    52    53 1   
   143    52    54 1   
   144    52   158 1   
   145    53   159 1   
   146    54    55 1   
   147    54    56 1   
   148    54   160 1   
   149    55   161 1   
   150    56    57 1   
   151    56    58 1   
   152    56   162 1   
   153    57   163 1   
   154    58    59 1   
   155    58   164 1   
   156    59    60 1   
   157    59    61 2   
   158    60    62 1   
   159    60   165 1   
   160    62    63 1   
   161    62   166 1   
   162    62   167 1   
   163    63    64 ar  
   164    63    68 ar  
   165    64    65 ar  
   166    64   168 1   
   167    65    66 ar  
   168    65   169 1   
   169    66    67 ar  
   170    66   170 1   
   171    67    68 ar  
   172    67   171 1   
   173    68   172 1   
@<TRIPOS>SUBSTRUCTURE
     1 QUY         1 TEMP              0 ****  ****    0 ROOT
