@<TRIPOS>MOLECULE
QUZ
   16    17     1     0     0
SMALL
abcg2


@<TRIPOS>ATOM
      1 C01         -2.4020     0.7040    -0.0320 ca         1 QUZ      -0.111000
      2 C02         -2.3810    -0.7080    -0.0220 ca         1 QUZ      -0.087000
      3 C03         -1.1990    -1.4000     0.0000 ca         1 QUZ      -0.089000
      4 C04          0.0220    -0.6930     0.0130 ca         1 QUZ       0.027000
      5 N05          1.1990    -1.3640     0.0340 nb         1 QUZ      -0.163000
      6 C06          2.2880    -0.6520     0.0440 ca         1 QUZ       0.119900
      7 N07          2.3810     0.6960     0.0360 nb         1 QUZ      -0.178000
      8 C08          1.2550     1.3580     0.0150 ca         1 QUZ       0.133900
      9 C09         -0.0020     0.7190     0.0020 ca         1 QUZ      -0.147000
     10 C10         -1.2310     1.4110    -0.0210 ca         1 QUZ      -0.073000
     11 H01         -3.3520     1.2220    -0.0510 ha         1 QUZ       0.119000
     12 H02         -3.3180    -1.2500    -0.0320 ha         1 QUZ       0.119000
     13 H03         -1.1800    -2.4810     0.0080 ha         1 QUZ       0.136000
     14 H06          3.2310    -1.1880     0.0610 h5         1 QUZ       0.050100
     15 H08          1.3080     2.4430     0.0090 h4         1 QUZ       0.023100
     16 H10         -1.2340     2.4940    -0.0280 ha         1 QUZ       0.120000
@<TRIPOS>BOND
     1     1     2 ar  
     2     1    10 ar  
     3     1    11 1   
     4     2     3 ar  
     5     2    12 1   
     6     3     4 ar  
     7     3    13 1   
     8     4     5 ar  
     9     4     9 ar  
    10     5     6 ar  
    11     6     7 ar  
    12     6    14 1   
    13     7     8 ar  
    14     8     9 ar  
    15     8    15 1   
    16     9    10 ar  
    17    10    16 1   
@<TRIPOS>SUBSTRUCTURE
     1 QUZ         1 TEMP              0 ****  ****    0 ROOT
