@<TRIPOS>MOLECULE
QUZ
   16    17     1     0     0
SMALL
No Charge or Current Charge


@<TRIPOS>ATOM
      1 C01         -2.4240     0.6990    -0.0330 ca         1 QUZ      -0.111000
      2 C02         -2.4190    -0.7060    -0.0230 ca         1 QUZ      -0.087000
      3 C03         -1.2000    -1.4080    -0.0000 ca         1 QUZ      -0.089000
      4 C04          0.0250    -0.7150     0.0120 ca         1 QUZ       0.027000
      5 N05          1.2010    -1.3790     0.0340 nb         1 QUZ      -0.163000
      6 C06          2.3310    -0.6390     0.0450 ca         1 QUZ       0.119900
      7 N07          2.4120     0.7080     0.0370 nb         1 QUZ      -0.178000
      8 C08          1.2430     1.3780     0.0150 ca         1 QUZ       0.133900
      9 C09          0.0070     0.7000     0.0020 ca         1 QUZ      -0.147000
     10 C10         -1.2100     1.4060    -0.0200 ca         1 QUZ      -0.073000
     11 H01         -3.3680     1.2400    -0.0500 ha         1 QUZ       0.119000
     12 H02         -3.3600    -1.2530    -0.0320 ha         1 QUZ       0.119000
     13 H03         -1.2070    -2.4960     0.0070 ha         1 QUZ       0.136000
     14 H06          3.2720    -1.1850     0.0620 h5         1 QUZ       0.050100
     15 H08          1.2990     2.4650     0.0080 h4         1 QUZ       0.023100
     16 H10         -1.2170     2.4940    -0.0280 ha         1 QUZ       0.120000
@<TRIPOS>BOND
     1     1     2 ar  
     2     1    10 ar  
     3     1    11 1   
     4     2     3 ar  
     5     2    12 1   
     6     3     4 ar  
     7     3    13 1   
     8     4     5 ar  
     9     4     9 ar  
    10     5     6 ar  
    11     6     7 ar  
    12     6    14 1   
    13     7     8 ar  
    14     8     9 ar  
    15     8    15 1   
    16     9    10 ar  
    17    10    16 1   
@<TRIPOS>SUBSTRUCTURE
     1 QUZ         1 TEMP              0 ****  ****    0 ROOT
