@<TRIPOS>MOLECULE
QV0
   46    50     1     0     0
SMALL
No Charge or Current Charge


@<TRIPOS>ATOM
      1 N1         -17.4810     4.5170    25.1080 nb         1 QV0      -0.655000
      2 C4         -21.5990     7.6730    30.2900 c6         1 QV0       0.159600
      3 C5         -22.4430     6.9820    29.2030 c6         1 QV0      -0.103400
      4 C6         -22.0490     5.4760    29.0840 c6         1 QV0      -0.055700
      5 C7         -23.1820     4.8080    28.2150 c6         1 QV0      -0.068400
      6 C8         -22.6310     4.0090    27.0190 c6         1 QV0      -0.093400
      7 C10        -20.6430     5.3830    28.3810 c          1 QV0       0.567000
      8 C13        -16.7260     5.6210    25.2940 ca         1 QV0       0.363900
      9 C15        -16.3310     7.8550    26.2030 ca         1 QV0      -0.079000
     10 C17        -18.1000     8.9910    27.4240 ca         1 QV0      -0.090000
     11 C20        -21.9500     4.8470    30.4960 ca         1 QV0      -0.138300
     12 C21        -21.9320     3.4420    30.6540 ca         1 QV0      -0.061000
     13 O1         -19.6180     5.2420    29.0380 o          1 QV0      -0.543000
     14 O          -21.8250     7.0430    31.5660 os         1 QV0      -0.347100
     15 C3         -21.8380     5.6650    31.6500 ca         1 QV0       0.166100
     16 C2         -21.7600     5.0840    32.9260 ca         1 QV0      -0.137000
     17 C1         -21.7620     3.6860    33.0710 ca         1 QV0      -0.062000
     18 C          -21.8420     2.8690    31.9330 ca         1 QV0       0.086000
     19 Cl         -21.8300     1.1190    32.1090 cl         1 QV0      -0.217000
     20 N          -20.5830     5.4570    26.9640 n          1 QV0      -0.247400
     21 C9         -21.7160     4.9130    26.1730 c6         1 QV0       0.116000
     22 C11        -19.3240     5.6310    26.2710 ca         1 QV0      -0.084000
     23 C19        -18.4930     6.7530    26.5210 ca         1 QV0      -0.003000
     24 C18        -18.9500     7.8900    27.2240 ca         1 QV0      -0.099000
     25 C16        -16.7910     8.9730    26.9170 ca         1 QV0      -0.111000
     26 C14        -17.1790     6.7480    26.0040 ca         1 QV0      -0.095000
     27 C12        -18.7350     4.5220    25.6140 ca         1 QV0       0.336900
     28 H2         -21.8650     8.7370    30.3650 h1         1 QV0       0.072700
     29 H3         -22.3220     7.4980    28.2410 hc         1 QV0       0.058200
     30 H4         -23.5020     7.0840    29.4830 hc         1 QV0       0.058200
     31 H5         -23.8710     5.5630    27.8090 hc         1 QV0       0.054200
     32 H6         -23.8190     4.1600    28.8340 hc         1 QV0       0.054200
     33 H7         -23.4600     3.6360    26.4030 hc         1 QV0       0.059700
     34 H8         -22.0740     3.1270    27.3650 hc         1 QV0       0.059700
     35 H9         -15.7190     5.5900    24.8800 h4         1 QV0       0.022100
     36 H10        -15.3160     7.8490    25.8070 ha         1 QV0       0.119000
     37 H11        -18.4600     9.8620    27.9670 ha         1 QV0       0.114000
     38 H12        -21.9870     2.7880    29.7890 ha         1 QV0       0.124000
     39 H13        -21.6910     5.7200    33.8040 ha         1 QV0       0.133000
     40 H14        -21.6960     3.2380    34.0590 ha         1 QV0       0.132000
     41 H15        -21.3500     4.3470    25.3060 h1         1 QV0       0.048700
     42 H16        -22.3010     5.7570    25.7810 h1         1 QV0       0.048700
     43 H17        -19.9660     7.9400    27.6010 ha         1 QV0       0.116000
     44 H18        -16.1360     9.8280    27.0710 ha         1 QV0       0.118000
     45 H19        -19.2870     3.5900    25.4990 h4         1 QV0       0.028100
     46 H1         -20.5290     7.6100    30.0450 h1         1 QV0       0.072700
@<TRIPOS>BOND
     1     1     8 ar  
     2     1    27 ar  
     3     2     3 1   
     4     2    14 1   
     5     2    28 1   
     6     2    46 1   
     7     3     4 1   
     8     3    29 1   
     9     3    30 1   
    10     4     5 1   
    11     4     7 1   
    12     4    11 1   
    13     5     6 1   
    14     5    31 1   
    15     5    32 1   
    16     6    21 1   
    17     6    33 1   
    18     6    34 1   
    19     7    13 2   
    20     7    20 1   
    21     8    26 ar  
    22     8    35 1   
    23     9    25 ar  
    24     9    26 ar  
    25     9    36 1   
    26    10    24 ar  
    27    10    25 ar  
    28    10    37 1   
    29    11    12 ar  
    30    11    15 ar  
    31    12    18 ar  
    32    12    38 1   
    33    14    15 1   
    34    15    16 ar  
    35    16    17 ar  
    36    16    39 1   
    37    17    18 ar  
    38    17    40 1   
    39    18    19 1   
    40    20    21 1   
    41    20    22 1   
    42    21    41 1   
    43    21    42 1   
    44    22    23 ar  
    45    22    27 ar  
    46    23    24 ar  
    47    23    26 ar  
    48    24    43 1   
    49    25    44 1   
    50    27    45 1   
@<TRIPOS>SUBSTRUCTURE
     1 QV0         1 TEMP              0 ****  ****    0 ROOT
