@<TRIPOS>MOLECULE
QV0
   46    50     1     0     0
SMALL
abcg2


@<TRIPOS>ATOM
      1 N1         -17.0580     4.3000    26.0430 nb         1 QV0      -0.655000
      2 C4         -21.4440     7.4980    30.9450 c6         1 QV0       0.159600
      3 C5         -22.1840     7.1180    29.6870 c6         1 QV0      -0.103400
      4 C6         -21.9410     5.6510    29.2500 c6         1 QV0      -0.055700
      5 C7         -23.0610     5.2890    28.2350 c6         1 QV0      -0.068400
      6 C8         -22.6000     4.4170    27.0790 c6         1 QV0      -0.093400
      7 C10        -20.5150     5.5680    28.6670 c          1 QV0       0.567000
      8 C13        -16.5250     5.4570    25.7180 ca         1 QV0       0.363900
      9 C15        -16.5670     7.9270    25.5260 ca         1 QV0      -0.079000
     10 C17        -18.5360     9.1110    26.2680 ca         1 QV0      -0.090000
     11 C20        -21.9810     4.7640    30.4910 ca         1 QV0      -0.138300
     12 C21        -22.0920     3.3780    30.3700 ca         1 QV0      -0.061000
     13 O1         -19.5410     5.7270    29.4040 o          1 QV0      -0.543000
     14 O          -21.8110     6.6400    32.0400 os         1 QV0      -0.347100
     15 C3         -21.9190     5.3100    31.7800 ca         1 QV0       0.166100
     16 C2         -21.9990     4.4820    32.9030 ca         1 QV0      -0.137000
     17 C1         -22.1210     3.1110    32.7680 ca         1 QV0      -0.062000
     18 C          -22.1600     2.5690    31.4900 ca         1 QV0       0.086000
     19 CL         -22.2990     0.8300    31.2900 cl         1 QV0      -0.217000
     20 N          -20.3530     5.3580    27.3360 n          1 QV0      -0.247400
     21 C9         -21.4420     5.0950    26.3820 c6         1 QV0       0.116000
     22 C11        -19.0320     5.4460    26.7960 ca         1 QV0      -0.084000
     23 C19        -18.4820     6.7060    26.4510 ca         1 QV0      -0.003000
     24 C18        -19.1500     7.9390    26.6300 ca         1 QV0      -0.099000
     25 C16        -17.2360     9.1090    25.7120 ca         1 QV0      -0.111000
     26 C14        -17.1740     6.7020    25.8900 ca         1 QV0      -0.095000
     27 C12        -18.3050     4.3060    26.5790 ca         1 QV0       0.336900
     28 H2         -21.7130     8.5030    31.2670 h1         1 QV0       0.072700
     29 H3         -21.9090     7.7960    28.8780 hc         1 QV0       0.058200
     30 H4         -23.2570     7.2360    29.8590 hc         1 QV0       0.058200
     31 H5         -23.4410     6.2200    27.8080 hc         1 QV0       0.054200
     32 H6         -23.8890     4.8310    28.7750 hc         1 QV0       0.054200
     33 H7         -23.4160     4.2850    26.3660 hc         1 QV0       0.059700
     34 H8         -22.2920     3.4230    27.4090 hc         1 QV0       0.059700
     35 H9         -15.5260     5.4420    25.2910 h4         1 QV0       0.022100
     36 H10        -15.5700     7.9120    25.1020 ha         1 QV0       0.119000
     37 H11        -19.0510    10.0530    26.4080 ha         1 QV0       0.114000
     38 H12        -22.1290     2.9230    29.3920 ha         1 QV0       0.124000
     39 H13        -21.9590     4.9350    33.8850 ha         1 QV0       0.133000
     40 H14        -22.1790     2.4740    33.6400 ha         1 QV0       0.132000
     41 H15        -21.0310     4.4660    25.5930 h1         1 QV0       0.048700
     42 H16        -21.7640     6.0370    25.9250 h1         1 QV0       0.048700
     43 H17        -20.1460     7.9500    27.0510 ha         1 QV0       0.116000
     44 H18        -16.7730    10.0470    25.4350 ha         1 QV0       0.118000
     45 H19        -18.7260     3.3420    26.8440 h4         1 QV0       0.028100
     46 H1         -20.3640     7.4410    30.8030 h1         1 QV0       0.072700
@<TRIPOS>BOND
     1     1     8 ar  
     2     1    27 ar  
     3     2     3 1   
     4     2    14 1   
     5     2    28 1   
     6     2    46 1   
     7     3     4 1   
     8     3    29 1   
     9     3    30 1   
    10     4     5 1   
    11     4     7 1   
    12     4    11 1   
    13     5     6 1   
    14     5    31 1   
    15     5    32 1   
    16     6    21 1   
    17     6    33 1   
    18     6    34 1   
    19     7    13 2   
    20     7    20 1   
    21     8    26 ar  
    22     8    35 1   
    23     9    25 ar  
    24     9    26 ar  
    25     9    36 1   
    26    10    24 ar  
    27    10    25 ar  
    28    10    37 1   
    29    11    12 ar  
    30    11    15 ar  
    31    12    18 ar  
    32    12    38 1   
    33    14    15 1   
    34    15    16 ar  
    35    16    17 ar  
    36    16    39 1   
    37    17    18 ar  
    38    17    40 1   
    39    18    19 1   
    40    20    21 1   
    41    20    22 1   
    42    21    41 1   
    43    21    42 1   
    44    22    23 ar  
    45    22    27 ar  
    46    23    24 ar  
    47    23    26 ar  
    48    24    43 1   
    49    25    44 1   
    50    27    45 1   
@<TRIPOS>SUBSTRUCTURE
     1 QV0         1 TEMP              0 ****  ****    0 ROOT
