@<TRIPOS>MOLECULE
QV1
   34    36     1     0     0
SMALL
abcg2


@<TRIPOS>ATOM
      1 C18        -20.2880     7.2650    12.4200 c5         1 QV1      -0.200700
      2 C19        -19.5740     6.4980    11.2890 c          1 QV1       0.715000
      3 C10        -23.6860     3.5870    15.3680 ca         1 QV1      -0.013400
      4 C17        -21.3060     6.4350    13.1960 c5         1 QV1       0.107000
      5 C14        -24.3060     3.4220    13.1990 c          1 QV1       0.687100
      6 C12        -23.5480     4.8350    14.7630 ca         1 QV1       0.084100
      7 C01        -20.3420     9.6480    11.4290 c3         1 QV1      -0.070100
      8 C02        -21.1390     8.4430    11.9050 c5         1 QV1      -0.067700
      9 C03        -22.0550     8.7460    13.0920 c5         1 QV1       0.097000
     10 C05        -23.0060     7.3180    14.8290 c          1 QV1       0.607700
     11 C06        -23.1160     5.9540    15.4440 ca         1 QV1      -0.082600
     12 C07        -22.8300     5.7690    16.8040 ca         1 QV1      -0.079000
     13 C08        -22.9520     4.5240    17.4130 ca         1 QV1      -0.115000
     14 C09        -23.3860     3.4000    16.7030 ca         1 QV1      -0.109000
     15 N04        -22.2310     7.4440    13.7460 n          1 QV1      -0.380800
     16 N11        -24.1500     2.7400    14.3690 ns         1 QV1      -0.529600
     17 O13        -23.9300     4.7360    13.4420 os         1 QV1      -0.271200
     18 O16        -23.6120     8.2720    15.3350 o          1 QV1      -0.648100
     19 O20        -18.3300     6.6630    11.1930 o          1 QV1      -0.725500
     20 O21        -20.2900     5.7910    10.5350 o          1 QV1      -0.725500
     21 H181       -19.5330     7.6570    13.1060 hc         1 QV1       0.042700
     22 H172       -20.8600     5.8490    13.9970 h1         1 QV1       0.058700
     23 H171       -21.8300     5.7670    12.5140 h1         1 QV1       0.058700
     24 H013       -19.7050     9.3830    10.5840 hc         1 QV1       0.028367
     25 H011       -21.0040    10.4560    11.1100 hc         1 QV1       0.028367
     26 H012       -19.7030    10.0280    12.2300 hc         1 QV1       0.028367
     27 H021       -21.7540     8.0660    11.0830 hc         1 QV1       0.072700
     28 H032       -21.5850     9.4480    13.7870 h1         1 QV1       0.038700
     29 H031       -23.0190     9.1600    12.7960 h1         1 QV1       0.038700
     30 H071       -22.4980     6.6210    17.3820 ha         1 QV1       0.132000
     31 H081       -22.7070     4.4220    18.4620 ha         1 QV1       0.113000
     32 H091       -23.4870     2.4330    17.1770 ha         1 QV1       0.117000
     33 H111       -24.3670     1.7590    14.4630 hn         1 QV1       0.467000
     34 O15        -24.6890     3.0430    12.1200 o          1 QV1      -0.503000
@<TRIPOS>BOND
     1     1     2 1   
     2     1     4 1   
     3     1     8 1   
     4     1    21 1   
     5     2    19 1   
     6     2    20 1   
     7     3     6 ar  
     8     3    14 ar  
     9     3    16 1   
    10     4    15 1   
    11     4    22 1   
    12     4    23 1   
    13     5    16 1   
    14     5    17 1   
    15     5    34 2   
    16     6    11 ar  
    17     6    17 1   
    18     7     8 1   
    19     7    24 1   
    20     7    25 1   
    21     7    26 1   
    22     8     9 1   
    23     8    27 1   
    24     9    15 1   
    25     9    28 1   
    26     9    29 1   
    27    10    11 1   
    28    10    15 1   
    29    10    18 2   
    30    11    12 ar  
    31    12    13 ar  
    32    12    30 1   
    33    13    14 ar  
    34    13    31 1   
    35    14    32 1   
    36    16    33 1   
@<TRIPOS>SUBSTRUCTURE
     1 QV1         1 TEMP              0 ****  ****    0 ROOT
