@<TRIPOS>MOLECULE
QV1
   34    36     1     0     0
SMALL
No Charge or Current Charge


@<TRIPOS>ATOM
      1 C18        -20.2160     7.3670    12.4550 c5         1 QV1      -0.200700
      2 C19        -19.5050     6.5170    11.3700 c          1 QV1       0.715000
      3 C10        -23.7030     3.6100    15.3230 ca         1 QV1      -0.013400
      4 C17        -21.1610     6.4750    13.3040 c5         1 QV1       0.107000
      5 C14        -24.2230     3.5600    13.0840 c          1 QV1       0.687100
      6 C12        -23.4770     4.8560    14.7860 ca         1 QV1       0.084100
      7 C01        -20.5520     9.5960    11.1340 c3         1 QV1      -0.070100
      8 C02        -21.2130     8.3990    11.8510 c5         1 QV1      -0.067700
      9 C03        -22.0090     8.7770    13.1280 c5         1 QV1       0.097000
     10 C05        -22.8260     7.3230    15.0230 c          1 QV1       0.607700
     11 C06        -23.0520     5.9380    15.5760 ca         1 QV1      -0.082600
     12 C07        -22.8990     5.6820    16.9640 ca         1 QV1      -0.079000
     13 C08        -23.1250     4.3890    17.5050 ca         1 QV1      -0.115000
     14 C09        -23.5330     3.3210    16.6770 ca         1 QV1      -0.109000
     15 N04        -22.1520     7.4640    13.7920 n          1 QV1      -0.380800
     16 N11        -24.1430     2.8480    14.2500 ns         1 QV1      -0.529600
     17 O13        -23.8060     4.8240    13.4490 os         1 QV1      -0.271200
     18 O16        -23.2670     8.3070    15.6100 o          1 QV1      -0.648100
     19 O20        -18.2830     6.4920    11.3640 o          1 QV1      -0.725500
     20 O21        -20.1670     5.8970    10.5510 o          1 QV1      -0.725500
     21 H181       -19.4680     7.8570    13.0900 hc         1 QV1       0.042700
     22 H172       -20.6270     5.9730    14.1220 h1         1 QV1       0.058700
     23 H171       -21.6470     5.7100    12.6860 h1         1 QV1       0.058700
     24 H013       -19.9810     9.2640    10.2580 hc         1 QV1       0.028367
     25 H011       -21.3080    10.3110    10.7880 hc         1 QV1       0.028367
     26 H012       -19.8650    10.1290    11.8010 hc         1 QV1       0.028367
     27 H021       -21.8820     7.9210    11.1250 hc         1 QV1       0.072700
     28 H032       -21.4490     9.4760    13.7650 h1         1 QV1       0.038700
     29 H031       -22.9820     9.2260    12.8870 h1         1 QV1       0.038700
     30 H071       -22.5930     6.4890    17.6270 ha         1 QV1       0.132000
     31 H081       -22.9910     4.2210    18.5720 ha         1 QV1       0.113000
     32 H091       -23.7260     2.3290    17.0780 ha         1 QV1       0.117000
     33 H111       -24.4060     1.8690    14.3040 hn         1 QV1       0.467000
     34 O15        -24.5820     3.1680    11.9860 o          1 QV1      -0.503000
@<TRIPOS>BOND
     1     1     2 1   
     2     1     4 1   
     3     1     8 1   
     4     1    21 1   
     5     2    19 1   
     6     2    20 1   
     7     3     6 ar  
     8     3    14 ar  
     9     3    16 1   
    10     4    15 1   
    11     4    22 1   
    12     4    23 1   
    13     5    16 1   
    14     5    17 1   
    15     5    34 2   
    16     6    11 ar  
    17     6    17 1   
    18     7     8 1   
    19     7    24 1   
    20     7    25 1   
    21     7    26 1   
    22     8     9 1   
    23     8    27 1   
    24     9    15 1   
    25     9    28 1   
    26     9    29 1   
    27    10    11 1   
    28    10    15 1   
    29    10    18 2   
    30    11    12 ar  
    31    12    13 ar  
    32    12    30 1   
    33    13    14 ar  
    34    13    31 1   
    35    14    32 1   
    36    16    33 1   
@<TRIPOS>SUBSTRUCTURE
     1 QV1         1 TEMP              0 ****  ****    0 ROOT
