@<TRIPOS>MOLECULE
QV2
   45    49     1     0     0
SMALL
bcc


@<TRIPOS>ATOM
      1 C10        -19.9130     6.4400   -47.8250 c5         1 QV2      -0.073400
      2 C17        -18.9460     5.1790   -42.2500 cc         1 QV2       0.772500
      3 C20        -20.1990     5.2000   -40.5070 ca         1 QV2       0.019100
      4 C22        -20.7170     5.2250   -39.2320 ca         1 QV2      -0.105000
      5 C24        -22.9040     5.1440   -40.2940 ca         1 QV2      -0.137000
      6 C02        -16.0520     5.4990   -48.1340 c          1 QV2       0.593300
      7 C03        -14.5540     5.4160   -48.3450 c6         1 QV2      -0.183400
      8 C04        -13.8760     4.4850   -47.3570 c6         1 QV2      -0.063400
      9 C05        -14.2130     4.9130   -45.9430 c6         1 QV2      -0.056200
     10 C06        -15.6860     5.1030   -45.7670 c2         1 QV2       0.186800
     11 C07        -16.5590     5.3670   -46.7730 ce         1 QV2      -0.307400
     12 C08        -18.0440     5.5140   -46.4790 c5         1 QV2       0.235400
     13 C09        -18.6660     6.8380   -47.0240 c5         1 QV2      -0.061400
     14 C11        -20.2670     5.0420   -47.3200 c5         1 QV2      -0.073400
     15 C12        -18.8990     4.4010   -47.1260 c5         1 QV2      -0.061400
     16 C14        -17.4570     5.2380   -44.1950 c2         1 QV2       0.838100
     17 C19        -20.9670     5.1490   -41.6640 ca         1 QV2       0.082400
     18 C23        -22.1060     5.1960   -39.1490 ca         1 QV2      -0.123000
     19 C25        -22.3510     5.1200   -41.5690 ca         1 QV2      -0.075000
     20 N13        -18.3430     5.4890   -45.0500 n2         1 QV2      -0.636900
     21 N15        -16.1260     5.0160   -44.4810 nu         1 QV2      -0.768000
     22 N16        -17.7240     5.1730   -42.8330 nu         1 QV2      -0.794200
     23 N18        -20.1250     5.1350   -42.7640 nd         1 QV2      -0.573100
     24 O01        -16.7850     5.7030   -49.0920 o          1 QV2      -0.533100
     25 O21        -18.8930     5.2210   -40.8980 os         1 QV2      -0.321700
     26 H1         -19.6730     6.3900   -48.8890 hc         1 QV2       0.045950
     27 H2         -20.7290     7.1550   -47.7120 hc         1 QV2       0.045950
     28 H3         -20.0920     5.2650   -38.3500 ha         1 QV2       0.148000
     29 H4         -23.9800     5.1230   -40.1840 ha         1 QV2       0.135000
     30 H5         -14.3650     5.1160   -49.3760 hc         1 QV2       0.070700
     31 H6         -14.1500     6.4300   -48.2300 hc         1 QV2       0.070700
     32 H7         -14.2160     3.4590   -47.5200 hc         1 QV2       0.053700
     33 H8         -12.7960     4.4910   -47.5030 hc         1 QV2       0.053700
     34 H9         -13.8500     4.1810   -45.2160 hc         1 QV2       0.058200
     35 H10        -13.7140     5.8590   -45.7030 hc         1 QV2       0.058200
     36 H13        -17.9630     7.4150   -47.6210 hc         1 QV2       0.049950
     37 H14        -18.9370     7.4580   -46.1690 hc         1 QV2       0.049950
     38 H15        -20.7980     5.1010   -46.3660 hc         1 QV2       0.045950
     39 H16        -20.9030     4.4880   -48.0120 hc         1 QV2       0.045950
     40 H17        -18.9080     3.5020   -46.5070 hc         1 QV2       0.049950
     41 H18        -18.4830     4.1290   -48.0970 hc         1 QV2       0.049950
     42 H19        -22.5760     5.2150   -38.1750 ha         1 QV2       0.135000
     43 H20        -22.9740     5.0790   -42.4530 ha         1 QV2       0.154000
     44 H21        -15.4780     4.7350   -43.7610 hn         1 QV2       0.440800
     45 H22        -16.9390     5.1710   -42.1970 hn         1 QV2       0.457800
@<TRIPOS>BOND
     1     1    13 1   
     2     1    14 1   
     3     1    26 1   
     4     1    27 1   
     5     2    22 1   
     6     2    23 2   
     7     2    25 1   
     8     3     4 ar  
     9     3    17 ar  
    10     3    25 1   
    11     4    18 ar  
    12     4    28 1   
    13     5    18 ar  
    14     5    19 ar  
    15     5    29 1   
    16     6     7 1   
    17     6    11 1   
    18     6    24 2   
    19     7     8 1   
    20     7    30 1   
    21     7    31 1   
    22     8     9 1   
    23     8    32 1   
    24     8    33 1   
    25     9    10 1   
    26     9    34 1   
    27     9    35 1   
    28    10    11 2   
    29    10    21 1   
    30    11    12 1   
    31    12    13 1   
    32    12    15 1   
    33    12    20 1   
    34    13    36 1   
    35    13    37 1   
    36    14    15 1   
    37    14    38 1   
    38    14    39 1   
    39    15    40 1   
    40    15    41 1   
    41    16    20 2   
    42    16    21 1   
    43    16    22 1   
    44    17    19 ar  
    45    17    23 1   
    46    18    42 1   
    47    19    43 1   
    48    21    44 1   
    49    22    45 1   
@<TRIPOS>SUBSTRUCTURE
     1 QV2         1 TEMP              0 ****  ****    0 ROOT
