@<TRIPOS>MOLECULE
QV2
   45    49     1     0     0
SMALL
No Charge or Current Charge


@<TRIPOS>ATOM
      1 C10        -19.6580     6.5150   -48.0860 c5         1 QV2      -0.073400
      2 C17        -18.9400     4.9600   -42.2180 cc         1 QV2       0.772500
      3 C20        -20.1330     5.4740   -40.5600 ca         1 QV2       0.019100
      4 C22        -20.6620     5.9580   -39.3570 ca         1 QV2      -0.087000
      5 C24        -22.8130     4.9920   -40.0280 ca         1 QV2      -0.119000
      6 C02        -16.0990     5.4530   -48.1010 c          1 QV2       0.593300
      7 C03        -14.6460     5.9230   -48.0920 c6         1 QV2      -0.183400
      8 C04        -13.7830     4.8350   -47.4030 c6         1 QV2      -0.063400
      9 C05        -14.2990     4.4930   -45.9740 c6         1 QV2      -0.056200
     10 C06        -15.7990     4.7130   -45.7870 c2         1 QV2       0.186800
     11 C07        -16.6280     5.1690   -46.7290 ce         1 QV2      -0.307400
     12 C08        -18.1140     5.4690   -46.4570 c5         1 QV2       0.235400
     13 C09        -18.5430     6.8650   -47.0510 c5         1 QV2      -0.061400
     14 C11        -20.2760     5.2160   -47.5050 c5         1 QV2      -0.073400
     15 C12        -18.9940     4.4000   -47.1910 c5         1 QV2      -0.061400
     16 C14        -17.6540     4.8960   -44.2400 c2         1 QV2       0.838100
     17 C19        -20.8840     4.7820   -41.4660 ca         1 QV2       0.082400
     18 C23        -22.0260     5.7100   -39.0950 ca         1 QV2      -0.105000
     19 C25        -22.2410     4.5180   -41.2300 ca         1 QV2      -0.057000
     20 N13        -18.5220     5.4420   -45.0110 n2         1 QV2      -0.636900
     21 N15        -16.3800     4.5580   -44.5530 nu         1 QV2      -0.823200
     22 N16        -17.8070     4.7920   -42.9200 nu         1 QV2      -0.849400
     23 N18        -20.1160     4.4190   -42.5510 nd         1 QV2      -0.573100
     24 O01        -16.7470     5.4210   -49.1380 o          1 QV2      -0.533100
     25 O21        -18.8570     5.6020   -40.9960 os         1 QV2      -0.321700
     26 H1         -19.2430     6.3420   -49.0860 hc         1 QV2       0.045950
     27 H2         -20.3970     7.3180   -48.1840 hc         1 QV2       0.045950
     28 H3         -20.0410     6.5060   -38.6520 ha         1 QV2       0.130000
     29 H4         -23.8630     4.8020   -39.8190 ha         1 QV2       0.117000
     30 H5         -14.3040     6.1690   -49.1050 hc         1 QV2       0.070700
     31 H6         -14.5890     6.8110   -47.4470 hc         1 QV2       0.070700
     32 H7         -13.8050     3.9250   -48.0190 hc         1 QV2       0.053700
     33 H8         -12.7300     5.1480   -47.3590 hc         1 QV2       0.053700
     34 H9         -14.0380     3.4560   -45.7230 hc         1 QV2       0.058200
     35 H10        -13.7700     5.1250   -45.2480 hc         1 QV2       0.058200
     36 H13        -17.7240     7.4280   -47.5100 hc         1 QV2       0.049950
     37 H14        -18.9470     7.5240   -46.2720 hc         1 QV2       0.049950
     38 H15        -20.8700     5.4140   -46.6040 hc         1 QV2       0.045950
     39 H16        -20.9290     4.7070   -48.2220 hc         1 QV2       0.045950
     40 H17        -19.2010     3.5200   -46.5700 hc         1 QV2       0.049950
     41 H18        -18.5430     4.0220   -48.1130 hc         1 QV2       0.049950
     42 H19        -22.4740     6.0700   -38.1710 ha         1 QV2       0.117000
     43 H20        -22.8340     3.9640   -41.9540 ha         1 QV2       0.136000
     44 H21        -15.9340     3.9360   -43.8900 hn         1 QV2       0.496000
     45 H22        -17.0380     5.2070   -42.4240 hn         1 QV2       0.513000
@<TRIPOS>BOND
     1     1    13 1   
     2     1    14 1   
     3     1    26 1   
     4     1    27 1   
     5     2    22 1   
     6     2    23 2   
     7     2    25 1   
     8     3     4 ar  
     9     3    17 ar  
    10     3    25 1   
    11     4    18 ar  
    12     4    28 1   
    13     5    18 ar  
    14     5    19 ar  
    15     5    29 1   
    16     6     7 1   
    17     6    11 1   
    18     6    24 2   
    19     7     8 1   
    20     7    30 1   
    21     7    31 1   
    22     8     9 1   
    23     8    32 1   
    24     8    33 1   
    25     9    10 1   
    26     9    34 1   
    27     9    35 1   
    28    10    11 2   
    29    10    21 1   
    30    11    12 1   
    31    12    13 1   
    32    12    15 1   
    33    12    20 1   
    34    13    36 1   
    35    13    37 1   
    36    14    15 1   
    37    14    38 1   
    38    14    39 1   
    39    15    40 1   
    40    15    41 1   
    41    16    20 2   
    42    16    21 1   
    43    16    22 1   
    44    17    19 ar  
    45    17    23 1   
    46    18    42 1   
    47    19    43 1   
    48    21    44 1   
    49    22    45 1   
@<TRIPOS>SUBSTRUCTURE
     1 QV2         1 TEMP              0 ****  ****    0 ROOT
