@<TRIPOS>MOLECULE
QV3
   62    65     1     0     0
SMALL
abcg2


@<TRIPOS>ATOM
      1 N3          -9.4700    16.9130   -11.4510 n          1 QV3      -0.250000
      2 C4         -10.3030    18.0990   -11.1950 c3         1 QV3       0.025700
      3 C5          -9.9660    19.1480   -12.2660 c          1 QV3       0.595100
      4 C7         -11.1000    20.7030   -13.8390 ca         1 QV3       0.028000
      5 C8          -9.9650    21.3350   -14.3470 ca         1 QV3      -0.187000
      6 C10        -11.3640    22.7270   -15.8020 ca         1 QV3      -0.216600
      7 C13        -11.6120    23.7830   -16.8360 c          1 QV3       0.625700
      8 C20         -9.8660    16.1140   -12.5230 c          1 QV3       0.546200
      9 C22         -8.9990    15.0090   -12.8100 cc         1 QV3      -0.262200
     10 C24         -6.9440    13.6660   -12.5160 ca         1 QV3      -0.008800
     11 C26         -6.5890    11.3080   -12.8580 ca         1 QV3       0.130000
     12 C28         -4.7830    12.8220   -13.2400 ca         1 QV3      -0.096000
     13 C1          -7.5090    15.6280   -11.0290 cd         1 QV3       0.031100
     14 C2          -8.3270    16.6760   -10.7360 cc         1 QV3      -0.103400
     15 N6         -11.0500    19.6950   -12.8750 ns         1 QV3      -0.130000
     16 C9         -10.1290    22.3170   -15.3050 ca         1 QV3       0.220000
     17 C11        -12.4800    22.0740   -15.2620 ca         1 QV3      -0.008000
     18 C12        -12.3640    21.0860   -14.3080 ca         1 QV3      -0.192000
     19 N14        -10.5520    24.3230   -17.4650 nt         1 QV3      -0.604000
     20 O15        -12.7650    24.1330   -17.0990 o          1 QV3      -0.622100
     21 F16         -8.9850    22.8930   -15.7570 f          1 QV3      -0.184000
     22 O17         -8.8070    19.4600   -12.4930 o          1 QV3      -0.556100
     23 C18        -10.1350    18.6940    -9.7950 c3         1 QV3      -0.085400
     24 C19        -11.1770    19.7740    -9.5090 c3         1 QV3      -0.096100
     25 O21        -10.8850    16.3970   -13.1740 o          1 QV3      -0.572000
     26 C23         -7.8430    14.7790   -12.1240 cd         1 QV3       0.057800
     27 C25         -7.4270    12.3590   -12.5140 ca         1 QV3      -0.082000
     28 C27         -5.2650    11.5210   -13.2150 ca         1 QV3      -0.086000
     29 C29         -5.6140    13.8780   -12.8950 ca         1 QV3       0.017800
     30 N30         -5.0890    15.2020   -12.9530 na         1 QV3       0.210000
     31 C31         -4.0360    15.7060   -12.2790 cc         1 QV3      -0.112000
     32 C32         -3.9900    17.0180   -12.6700 cd         1 QV3       0.064300
     33 N33         -4.9990    17.2520   -13.5500 nd         1 QV3      -0.294000
     34 N34         -5.6640    16.1550   -13.7250 nc         1 QV3      -0.164800
     35 C35         -3.0660    18.0960   -12.2320 c3         1 QV3       0.296700
     36 F36         -2.4410    18.6930   -13.2700 f          1 QV3      -0.106333
     37 F37         -3.7120    19.0790   -11.5630 f          1 QV3      -0.106333
     38 F38         -2.1140    17.6140   -11.4110 f          1 QV3      -0.106333
     39 CL39        -7.2170     9.6800   -12.8350 cl         1 QV3      -0.185000
     40 O40         -6.3840    15.3120   -10.3310 os         1 QV3      -0.347100
     41 C41         -5.9340    16.2360    -9.3420 c3         1 QV3       0.140900
     42 H1         -11.3330    17.7710   -11.3170 h1         1 QV3       0.090700
     43 H2          -8.9760    21.0740   -14.0130 ha         1 QV3       0.172000
     44 H3          -9.2720    14.3920   -13.6540 ha         1 QV3       0.220000
     45 H4          -3.7640    13.0210   -13.5420 ha         1 QV3       0.136000
     46 H5          -8.1180    17.3560    -9.9310 h4         1 QV3       0.214000
     47 H6         -11.9450    19.3030   -12.6220 hn         1 QV3       0.162000
     48 H7         -13.4560    22.3680   -15.6210 ha         1 QV3       0.146000
     49 H8         -13.2490    20.6000   -13.9170 ha         1 QV3       0.121000
     50 H9         -10.7220    25.0260   -18.1680 hn         1 QV3       0.324500
     51 H10         -9.6060    24.0450   -17.2740 hn         1 QV3       0.324500
     52 H11        -10.2350    17.8840    -9.0700 hc         1 QV3       0.059700
     53 H12         -9.1350    19.1170    -9.6840 hc         1 QV3       0.059700
     54 H13        -11.0730    20.1290    -8.4830 hc         1 QV3       0.044700
     55 H14        -11.0600    20.6340   -10.1710 hc         1 QV3       0.044700
     56 H15        -12.1900    19.3870    -9.6340 hc         1 QV3       0.044700
     57 H16         -8.4490    12.1670   -12.2210 ha         1 QV3       0.145000
     58 H17         -4.6250    10.6930   -13.4810 ha         1 QV3       0.142000
     59 H18         -3.4480    15.1250   -11.5910 h4         1 QV3       0.183000
     60 H19         -4.9990    15.8340    -8.9620 h1         1 QV3       0.046367
     61 H20         -5.7610    17.2200    -9.7850 h1         1 QV3       0.046367
     62 H21         -6.6570    16.3200    -8.5270 h1         1 QV3       0.046367
@<TRIPOS>BOND
     1     1     2 1   
     2     1     8 1   
     3     1    14 1   
     4     2     3 1   
     5     2    23 1   
     6     2    42 1   
     7     3    15 1   
     8     3    22 2   
     9     4     5 ar  
    10     4    15 1   
    11     4    18 ar  
    12     5    16 ar  
    13     5    43 1   
    14     6     7 1   
    15     6    16 ar  
    16     6    17 ar  
    17     7    19 1   
    18     7    20 2   
    19     8     9 1   
    20     8    25 2   
    21     9    26 2   
    22     9    44 1   
    23    10    26 1   
    24    10    27 ar  
    25    10    29 ar  
    26    11    27 ar  
    27    11    28 ar  
    28    11    39 1   
    29    12    28 ar  
    30    12    29 ar  
    31    12    45 1   
    32    13    14 2   
    33    13    26 1   
    34    13    40 1   
    35    14    46 1   
    36    15    47 1   
    37    16    21 1   
    38    17    18 ar  
    39    17    48 1   
    40    18    49 1   
    41    19    50 1   
    42    19    51 1   
    43    23    24 1   
    44    23    52 1   
    45    23    53 1   
    46    24    54 1   
    47    24    55 1   
    48    24    56 1   
    49    27    57 1   
    50    28    58 1   
    51    29    30 1   
    52    30    31 1   
    53    30    34 1   
    54    31    32 2   
    55    31    59 1   
    56    32    33 1   
    57    32    35 1   
    58    33    34 2   
    59    35    36 1   
    60    35    37 1   
    61    35    38 1   
    62    40    41 1   
    63    41    60 1   
    64    41    61 1   
    65    41    62 1   
@<TRIPOS>SUBSTRUCTURE
     1 QV3         1 TEMP              0 ****  ****    0 ROOT
