@<TRIPOS>MOLECULE
QV3
   62    65     1     0     0
SMALL
No Charge or Current Charge


@<TRIPOS>ATOM
      1 N3          -9.2490    17.1410   -11.6820 n          1 QV3      -0.250000
      2 C4         -10.1170    18.3520   -11.4390 c3         1 QV3       0.025700
      3 C5          -9.9660    19.3910   -12.5860 c          1 QV3       0.595100
      4 C7         -11.4620    20.9770   -13.9510 ca         1 QV3       0.028000
      5 C8         -10.5030    21.5660   -14.7980 ca         1 QV3      -0.187000
      6 C10        -12.2260    22.9460   -15.8700 ca         1 QV3      -0.216600
      7 C13        -12.6980    23.9830   -16.8640 c          1 QV3       0.625700
      8 C20         -9.5950    16.3340   -12.7910 c          1 QV3       0.546200
      9 C22         -8.7050    15.1990   -13.0500 cc         1 QV3      -0.262200
     10 C24         -6.7570    13.7010   -12.6710 ca         1 QV3      -0.008800
     11 C26         -6.7470    11.3280   -13.2850 ca         1 QV3       0.130000
     12 C28         -4.6440    12.4970   -12.9920 ca         1 QV3      -0.096000
     13 C1          -7.3120    15.7410   -11.1770 cd         1 QV3       0.031100
     14 C2          -8.1270    16.8270   -10.8970 cc         1 QV3      -0.103400
     15 N6         -11.1580    19.9930   -12.9720 ns         1 QV3      -0.130000
     16 C9         -10.8760    22.5350   -15.7430 ca         1 QV3       0.220000
     17 C11        -13.1800    22.3500   -15.0160 ca         1 QV3      -0.008000
     18 C12        -12.8000    21.3810   -14.0730 ca         1 QV3      -0.192000
     19 N14        -11.8090    24.5670   -17.6900 nt         1 QV3      -0.604000
     20 O15        -13.8680    24.3160   -16.9480 o          1 QV3      -0.622100
     21 F16         -9.8990    23.0540   -16.5190 f          1 QV3      -0.184000
     22 O17         -8.8780    19.6370   -13.0980 o          1 QV3      -0.556100
     23 C18         -9.9410    19.0380   -10.0480 c3         1 QV3      -0.085400
     24 C19        -11.0070    20.1060    -9.7170 c3         1 QV3      -0.096100
     25 O21        -10.5730    16.5570   -13.4920 o          1 QV3      -0.572000
     26 C23         -7.5520    14.9120   -12.3420 cd         1 QV3       0.057800
     27 C25         -7.4450    12.5090   -12.9940 ca         1 QV3      -0.082000
     28 C27         -5.3480    11.3170   -13.2770 ca         1 QV3      -0.086000
     29 C29         -5.3320    13.6940   -12.6980 ca         1 QV3       0.017800
     30 N30         -4.5800    14.8620   -12.5370 na         1 QV3       0.210000
     31 C31         -3.5480    14.9990   -11.6530 cc         1 QV3      -0.112000
     32 C32         -3.0780    16.2500   -11.9610 cd         1 QV3       0.064300
     33 N33         -3.8060    16.7700   -13.0260 nd         1 QV3      -0.294000
     34 N34         -4.7120    15.9030   -13.3990 nc         1 QV3      -0.164800
     35 C35         -1.9490    17.0100   -11.2950 c3         1 QV3       0.296700
     36 F36         -1.0030    17.3910   -12.1840 f          1 QV3      -0.106333
     37 F37         -2.3930    18.1310   -10.6820 f          1 QV3      -0.106333
     38 F38         -1.3250    16.2670   -10.3520 f          1 QV3      -0.106333
     39 Cl39        -7.6340     9.8540   -13.6550 cl         1 QV3      -0.185000
     40 O40         -6.2900    15.3990   -10.3200 os         1 QV3      -0.347100
     41 C41         -5.9830    16.1700    -9.1430 c3         1 QV3       0.140900
     42 H1         -11.1550    17.9980   -11.4760 h1         1 QV3       0.090700
     43 H2          -9.4550    21.2910   -14.7470 ha         1 QV3       0.172000
     44 H3          -8.9980    14.6080   -13.9080 ha         1 QV3       0.220000
     45 H4          -3.5560    12.4860   -13.0260 ha         1 QV3       0.136000
     46 H5          -7.9810    17.4950   -10.0620 h4         1 QV3       0.214000
     47 H6         -11.9680    19.6740   -12.4560 hn         1 QV3       0.162000
     48 H7         -14.2300    22.6360   -15.0780 ha         1 QV3       0.146000
     49 H8         -13.5610    20.9420   -13.4300 ha         1 QV3       0.121000
     50 H9         -12.1290    25.2580   -18.3510 hn         1 QV3       0.324500
     51 H10        -10.8350    24.3100   -17.6410 hn         1 QV3       0.324500
     52 H11         -9.9920    18.2690    -9.2660 hc         1 QV3       0.059700
     53 H12         -8.9500    19.5050    -9.9840 hc         1 QV3       0.059700
     54 H13        -10.8800    20.4600    -8.6860 hc         1 QV3       0.044700
     55 H14        -10.9200    20.9760   -10.3790 hc         1 QV3       0.044700
     56 H15        -12.0190    19.6930    -9.8100 hc         1 QV3       0.044700
     57 H16         -8.5310    12.4810   -12.9830 ha         1 QV3       0.145000
     58 H17         -4.8100    10.4000   -13.5070 ha         1 QV3       0.142000
     59 H18         -3.2680    14.2620   -10.9130 h4         1 QV3       0.183000
     60 H19         -5.1320    15.7260    -8.6110 h1         1 QV3       0.046367
     61 H20         -5.7130    17.2000    -9.4100 h1         1 QV3       0.046367
     62 H21         -6.8370    16.1930    -8.4550 h1         1 QV3       0.046367
@<TRIPOS>BOND
     1     1     2 1   
     2     1     8 1   
     3     1    14 1   
     4     2     3 1   
     5     2    23 1   
     6     2    42 1   
     7     3    15 1   
     8     3    22 2   
     9     4     5 ar  
    10     4    15 1   
    11     4    18 ar  
    12     5    16 ar  
    13     5    43 1   
    14     6     7 1   
    15     6    16 ar  
    16     6    17 ar  
    17     7    19 1   
    18     7    20 2   
    19     8     9 1   
    20     8    25 2   
    21     9    26 2   
    22     9    44 1   
    23    10    26 1   
    24    10    27 ar  
    25    10    29 ar  
    26    11    27 ar  
    27    11    28 ar  
    28    11    39 1   
    29    12    28 ar  
    30    12    29 ar  
    31    12    45 1   
    32    13    14 2   
    33    13    26 1   
    34    13    40 1   
    35    14    46 1   
    36    15    47 1   
    37    16    21 1   
    38    17    18 ar  
    39    17    48 1   
    40    18    49 1   
    41    19    50 1   
    42    19    51 1   
    43    23    24 1   
    44    23    52 1   
    45    23    53 1   
    46    24    54 1   
    47    24    55 1   
    48    24    56 1   
    49    27    57 1   
    50    28    58 1   
    51    29    30 1   
    52    30    31 1   
    53    30    34 1   
    54    31    32 2   
    55    31    59 1   
    56    32    33 1   
    57    32    35 1   
    58    33    34 2   
    59    35    36 1   
    60    35    37 1   
    61    35    38 1   
    62    40    41 1   
    63    41    60 1   
    64    41    61 1   
    65    41    62 1   
@<TRIPOS>SUBSTRUCTURE
     1 QV3         1 TEMP              0 ****  ****    0 ROOT
