@<TRIPOS>MOLECULE
QV4
  108   112     1     0     0
SMALL
abcg2


@<TRIPOS>ATOM
      1 C1Q          8.8420    44.6760    30.8240 c6         1 QV4       0.391300
      2 C2Q          9.8050    43.4910    30.8750 c6         1 QV4       0.157300
      3 C3Q          9.7730    42.7220    29.5670 c6         1 QV4       0.133300
      4 C4Q          8.3470    42.3060    29.2360 c6         1 QV4       0.118300
      5 C5Q          7.4270    43.5300    29.2610 c6         1 QV4       0.099300
      6 C6Q          5.9620    43.1730    29.1180 c3         1 QV4       0.165600
      7 O2Q         11.1070    43.9840    31.1740 oh         1 QV4      -0.735000
      8 O3Q         10.6290    41.5930    29.7230 oh         1 QV4      -0.673000
      9 O4Q          8.3770    41.7130    27.9380 oh         1 QV4      -0.723000
     10 O5Q          7.5440    44.2160    30.5210 os         1 QV4      -0.481000
     11 O6Q          5.1320    44.3290    29.0460 oh         1 QV4      -0.711000
     12 C1P         10.0790    49.6370    29.4460 c6         1 QV4       0.350300
     13 C2P         10.8560    48.9300    30.5580 c6         1 QV4       0.153300
     14 C3P         10.7640    47.4190    30.3920 c6         1 QV4       0.133300
     15 C4P          9.3060    46.9820    30.2160 c6         1 QV4       0.126300
     16 C5P          8.6320    47.7770    29.1020 c6         1 QV4       0.120300
     17 C6P          7.1530    47.4870    28.9510 c3         1 QV4       0.165600
     18 O2P         12.2000    49.4070    30.5930 oh         1 QV4      -0.703000
     19 O3P         11.3550    46.7940    31.5190 oh         1 QV4      -0.725000
     20 O4P          9.3030    45.5980    29.8710 os         1 QV4      -0.490000
     21 O5P          8.7500    49.1760    29.3820 os         1 QV4      -0.470000
     22 O6P          6.5730    48.2780    27.9050 oh         1 QV4      -0.724000
     23 C1B         11.8680    51.7670    24.9740 c6         1 QV4       0.346300
     24 C2B         12.1380    52.3480    26.3710 c6         1 QV4       0.154300
     25 C3B         12.0680    51.2700    27.4400 c6         1 QV4       0.119300
     26 C4B         10.7680    50.4790    27.2950 c6         1 QV4       0.121300
     27 C5B         10.6720    49.8930    25.8910 c6         1 QV4       0.146300
     28 C6B          9.4350    49.0540    25.6330 c3         1 QV4       0.174600
     29 O2B         13.3840    53.0450    26.3750 oh         1 QV4      -0.709000
     30 O3B         12.1740    51.8870    28.7160 oh         1 QV4      -0.719000
     31 O4B         10.7740    49.4130    28.2410 os         1 QV4      -0.503000
     32 O5B         10.6850    50.9830    24.9450 os         1 QV4      -0.461000
     33 O6B          8.2310    49.7220    25.9850 oh         1 QV4      -0.730000
     34 C1S         19.4590    46.5350    22.6630 c6         1 QV4       0.402300
     35 C2S         19.5300    47.4190    21.4170 c6         1 QV4       0.069300
     36 C3S         18.9220    48.7880    21.6810 c6         1 QV4       0.096300
     37 C4S         17.5080    48.6570    22.2440 c6         1 QV4       0.129500
     38 C5S         17.5410    47.7420    23.4810 c6         1 QV4       0.177300
     39 C6S         16.1670    47.4170    24.0270 c3         1 QV4      -0.079100
     40 O2S         20.9020    47.5210    21.0440 oh         1 QV4      -0.727000
     41 O3S         18.9900    49.5950    20.5030 oh         1 QV4      -0.717000
     42 O5S         18.1560    46.4740    23.1610 os         1 QV4      -0.455000
     43 N4S         16.9360    49.9590    22.5870 n7         1 QV4      -0.870400
     44 C1T         15.8910    50.4610    21.6810 c6         1 QV4       0.215700
     45 C2T         15.5590    51.9090    22.0400 c6         1 QV4       0.183300
     46 C3T         14.8110    51.9680    23.3600 c6         1 QV4       0.120300
     47 C4T         13.4820    51.2370    23.2440 c6         1 QV4       0.187500
     48 C5T         13.5760    49.9330    22.4980 c2         1 QV4      -0.135400
     49 C6T         14.6440    49.6180    21.7700 c2         1 QV4      -0.196200
     50 C7T         12.3830    49.0190    22.5980 c3         1 QV4       0.201800
     51 O2T         16.7650    52.6660    22.0950 oh         1 QV4      -0.667000
     52 O3T         14.6180    53.3430    23.6940 oh         1 QV4      -0.749000
     53 O4T         12.9770    51.0110    24.5740 os         1 QV4      -0.508000
     54 O7T         11.1460    49.6800    22.3100 oh         1 QV4      -0.671000
     55 H1Q          8.7660    45.1450    31.8050 h2         1 QV4       0.091700
     56 H2Q          9.4680    42.8290    31.6800 h1         1 QV4       0.065700
     57 H3Q         10.1460    43.3640    28.7610 h1         1 QV4       0.074700
     58 H4Q          8.0100    41.5780    29.9810 h1         1 QV4       0.055700
     59 H5Q          7.7180    44.2050    28.4510 h1         1 QV4       0.080700
     60 H6Q1         5.8100    42.6220    28.1910 h1         1 QV4       0.052700
     61 H6Q2         5.6650    42.5330    29.9570 h1         1 QV4       0.052700
     62 HO2Q        11.7390    43.2600    31.0710 ho         1 QV4       0.540000
     63 HO3Q        10.6510    41.1220    28.8800 ho         1 QV4       0.467000
     64 HO4Q         7.6990    41.0300    27.8840 ho         1 QV4       0.514000
     65 HO6Q         5.2960    44.8560    29.8390 ho         1 QV4       0.511000
     66 H1P         10.0050    50.7030    29.6550 h2         1 QV4       0.098700
     67 H2P         10.4100    49.2130    31.5130 h1         1 QV4       0.101700
     68 H3P         11.3030    47.1340    29.4790 h1         1 QV4       0.053700
     69 H4P          8.7650    47.1370    31.1550 h1         1 QV4       0.063700
     70 H5P          9.1350    47.5500    28.1580 h1         1 QV4       0.070700
     71 H6P1         6.6330    47.6750    29.8940 h1         1 QV4       0.060200
     72 H6P2         7.0120    46.4450    28.6770 h1         1 QV4       0.060200
     73 HO2P        12.6860    48.9830    29.8720 ho         1 QV4       0.511000
     74 HO3P        11.3820    45.8330    31.3550 ho         1 QV4       0.541000
     75 HO6P         6.3530    49.1410    28.2780 ho         1 QV4       0.516000
     76 H1B         11.6860    52.5790    24.2710 h2         1 QV4       0.091700
     77 H2B         11.3700    53.0970    26.5740 h1         1 QV4       0.103700
     78 H3B         12.9020    50.5710    27.2960 h1         1 QV4       0.048700
     79 H4B          9.9080    51.1290    27.4690 h1         1 QV4       0.087700
     80 H5B         11.5410    49.2540    25.7090 h1         1 QV4       0.059700
     81 H6B1         9.4180    48.8040    24.5680 h1         1 QV4       0.045700
     82 H6B2         9.5410    48.1210    26.1870 h1         1 QV4       0.045700
     83 HO2B        14.0870    52.4060    26.5580 ho         1 QV4       0.514000
     84 HO3B        12.3110    51.1930    29.3810 ho         1 QV4       0.526000
     85 HO6B         7.7360    49.1680    26.6120 ho         1 QV4       0.527000
     86 H1S         19.7180    45.5040    22.4030 h2         1 QV4       0.085700
     87 H2S         18.9570    46.9240    20.6230 h1         1 QV4       0.050700
     88 H4S         16.8840    48.1680    21.4870 h1         1 QV4       0.052700
     89 H5S         18.1400    48.2370    24.2520 h1         1 QV4       0.063700
     90 H6S1        16.2560    46.7770    24.9060 hc         1 QV4       0.047367
     91 H6S2        15.6480    48.3310    24.3070 hc         1 QV4       0.047367
     92 H6S3        15.5710    46.8970    23.2740 hc         1 QV4       0.047367
     93 HO2S        20.9780    48.2570    20.4210 ho         1 QV4       0.527000
     94 HO3S        18.3910    49.2240    19.8400 ho         1 QV4       0.501000
     95 HN4S        17.6680    50.6600    22.6220 hn         1 QV4       0.449000
     96 H2T         14.9110    52.3130    21.2520 h1         1 QV4       0.052700
     97 H3T         15.4090    51.4760    24.1310 h1         1 QV4       0.072700
     98 H4T         12.7770    51.8880    22.7160 h1         1 QV4       0.070700
     99 H6T         14.6410    48.6880    21.2130 ha         1 QV4       0.179000
    100 H7T1        12.4890    48.2070    21.8790 h1         1 QV4       0.049200
    101 H7T2        12.3430    48.5760    23.5980 h1         1 QV4       0.049200
    102 HO2T        16.5650    53.4790    22.5780 ho         1 QV4       0.471000
    103 HO3T        14.2410    53.3890    24.5900 ho         1 QV4       0.535000
    104 HO7T        10.8510    50.1390    23.1130 ho         1 QV4       0.461000
    105 H1T         16.2410    50.4490    20.6390 h1         1 QV4       0.043700
    106 H3S         19.5430    49.3130    22.4130 h1         1 QV4       0.095700
    107 O1T         20.3370    47.0090    23.6710 oh         1 QV4      -0.747000
    108 HO1T        21.1050    47.3970    23.2240 ho         1 QV4       0.532000
@<TRIPOS>BOND
     1     1     2 1   
     2     1    10 1   
     3     1    20 1   
     4     1    55 1   
     5     2     3 1   
     6     2     7 1   
     7     2    56 1   
     8     3     4 1   
     9     3     8 1   
    10     3    57 1   
    11     4     5 1   
    12     4     9 1   
    13     4    58 1   
    14     5     6 1   
    15     5    10 1   
    16     5    59 1   
    17     6    11 1   
    18     6    60 1   
    19     6    61 1   
    20     7    62 1   
    21     8    63 1   
    22     9    64 1   
    23    11    65 1   
    24    12    13 1   
    25    12    21 1   
    26    12    31 1   
    27    12    66 1   
    28    13    14 1   
    29    13    18 1   
    30    13    67 1   
    31    14    15 1   
    32    14    19 1   
    33    14    68 1   
    34    15    16 1   
    35    15    20 1   
    36    15    69 1   
    37    16    17 1   
    38    16    21 1   
    39    16    70 1   
    40    17    22 1   
    41    17    71 1   
    42    17    72 1   
    43    18    73 1   
    44    19    74 1   
    45    22    75 1   
    46    23    24 1   
    47    23    32 1   
    48    23    53 1   
    49    23    76 1   
    50    24    25 1   
    51    24    29 1   
    52    24    77 1   
    53    25    26 1   
    54    25    30 1   
    55    25    78 1   
    56    26    27 1   
    57    26    31 1   
    58    26    79 1   
    59    27    28 1   
    60    27    32 1   
    61    27    80 1   
    62    28    33 1   
    63    28    81 1   
    64    28    82 1   
    65    29    83 1   
    66    30    84 1   
    67    33    85 1   
    68    34    35 1   
    69    34    42 1   
    70    34    86 1   
    71    34   107 1   
    72    35    36 1   
    73    35    40 1   
    74    35    87 1   
    75    36    37 1   
    76    36    41 1   
    77    36   106 1   
    78    37    38 1   
    79    37    43 1   
    80    37    88 1   
    81    38    39 1   
    82    38    42 1   
    83    38    89 1   
    84    39    90 1   
    85    39    91 1   
    86    39    92 1   
    87    40    93 1   
    88    41    94 1   
    89    43    44 1   
    90    43    95 1   
    91    44    45 1   
    92    44    49 1   
    93    44   105 1   
    94    45    46 1   
    95    45    51 1   
    96    45    96 1   
    97    46    47 1   
    98    46    52 1   
    99    46    97 1   
   100    47    48 1   
   101    47    53 1   
   102    47    98 1   
   103    48    49 2   
   104    48    50 1   
   105    49    99 1   
   106    50    54 1   
   107    50   100 1   
   108    50   101 1   
   109    51   102 1   
   110    52   103 1   
   111    54   104 1   
   112   107   108 1   
@<TRIPOS>SUBSTRUCTURE
     1 QV4         1 TEMP              0 ****  ****    0 ROOT
