@<TRIPOS>MOLECULE
QV4
  108   112     1     0     0
SMALL
No Charge or Current Charge


@<TRIPOS>ATOM
      1 C1Q          8.1960    44.7470    31.3380 c6         1 QV4       0.391300
      2 C2Q          9.1040    43.4840    31.1440 c6         1 QV4       0.157300
      3 C3Q          8.4330    42.5180    30.1270 c6         1 QV4       0.133300
      4 C4Q          6.9890    42.1620    30.5880 c6         1 QV4       0.118300
      5 C5Q          6.1800    43.4850    30.7760 c6         1 QV4       0.099300
      6 C6Q          4.7430    43.2540    31.3300 c3         1 QV4       0.165600
      7 O2Q         10.4430    43.8060    30.6920 oh         1 QV4      -0.735000
      8 O3Q          9.2200    41.3230    29.9680 oh         1 QV4      -0.673000
      9 O4Q          6.3710    41.2850    29.6220 oh         1 QV4      -0.723000
     10 O5Q          6.8550    44.3660    31.7190 os         1 QV4      -0.481000
     11 O6Q          4.1980    44.4790    31.8400 oh         1 QV4      -0.711000
     12 C1P          9.6420    49.4440    29.1930 c6         1 QV4       0.350300
     13 C2P         10.4210    48.6410    30.2890 c6         1 QV4       0.153300
     14 C3P         10.0700    47.1300    30.1840 c6         1 QV4       0.133300
     15 C4P          8.5180    46.9380    30.2690 c6         1 QV4       0.126300
     16 C5P          7.8480    47.7920    29.1550 c6         1 QV4       0.120300
     17 C6P          6.2940    47.7280    29.2060 c3         1 QV4       0.165600
     18 O2P         11.8550    48.8020    30.1940 oh         1 QV4      -0.703000
     19 O3P         10.7900    46.3890    31.1910 oh         1 QV4      -0.725000
     20 O4P          8.1210    45.5510    30.1390 os         1 QV4      -0.490000
     21 O5P          8.2230    49.1920    29.2830 os         1 QV4      -0.470000
     22 O6P          5.7170    48.7800    28.4160 oh         1 QV4      -0.724000
     23 C1B         12.1670    51.3700    24.8700 c6         1 QV4       0.346300
     24 C2B         12.4320    51.7680    26.3600 c6         1 QV4       0.154300
     25 C3B         12.0050    50.6070    27.2980 c6         1 QV4       0.119300
     26 C4B         10.5110    50.2240    27.0280 c6         1 QV4       0.121300
     27 C5B         10.3430    49.8730    25.5190 c6         1 QV4       0.146300
     28 C6B          8.8570    49.5540    25.1430 c3         1 QV4       0.174600
     29 O2B         13.8160    52.0960    26.6200 oh         1 QV4      -0.709000
     30 O3B         12.2600    50.9670    28.6710 oh         1 QV4      -0.719000
     31 O4B         10.0830    49.1120    27.8570 os         1 QV4      -0.503000
     32 O5B         10.7950    50.9730    24.6760 os         1 QV4      -0.461000
     33 O6B          7.9730    50.6920    25.2540 oh         1 QV4      -0.730000
     34 C1S         21.4790    48.3790    20.8900 c6         1 QV4       0.402300
     35 C2S         20.8300    49.7060    20.3700 c6         1 QV4       0.069300
     36 C3S         19.6810    50.1640    21.3120 c6         1 QV4       0.096300
     37 C4S         18.6440    49.0050    21.4960 c6         1 QV4       0.129500
     38 C5S         19.4030    47.7390    22.0190 c6         1 QV4       0.177300
     39 C6S         18.4850    46.4950    22.1360 c3         1 QV4      -0.079100
     40 O2S         21.7970    50.7700    20.2410 oh         1 QV4      -0.727000
     41 O3S         19.0800    51.3720    20.7980 oh         1 QV4      -0.717000
     42 O5S         20.4690    47.3730    21.1060 os         1 QV4      -0.455000
     43 N4S         17.5200    49.4010    22.3980 n7         1 QV4      -0.870400
     44 C1T         16.3620    50.0210    21.7120 c6         1 QV4       0.215700
     45 C2T         16.0100    51.4170    22.3250 c6         1 QV4       0.183300
     46 C3T         15.1640    51.2510    23.6150 c6         1 QV4       0.120300
     47 C4T         13.8180    50.5430    23.2510 c6         1 QV4       0.187500
     48 C5T         14.0650    49.2370    22.4800 c2         1 QV4      -0.135400
     49 C6T         15.2060    49.0360    21.7870 c2         1 QV4      -0.196200
     50 C7T         12.9560    48.1940    22.5320 c3         1 QV4       0.201800
     51 O2T         17.2000    52.1650    22.6410 oh         1 QV4      -0.667000
     52 O3T         14.9740    52.5350    24.2560 oh         1 QV4      -0.749000
     53 O4T         13.0080    50.2850    24.4250 os         1 QV4      -0.508000
     54 O7T         11.6720    48.8200    22.4810 oh         1 QV4      -0.671000
     55 H1Q          8.6270    45.3430    32.1570 h2         1 QV4       0.091700
     56 H2Q          9.1580    42.9700    32.1150 h1         1 QV4       0.065700
     57 H3Q          8.3550    43.0420    29.1610 h1         1 QV4       0.074700
     58 H4Q          7.0560    41.6580    31.5650 h1         1 QV4       0.055700
     59 H5Q          6.0920    44.0000    29.8070 h1         1 QV4       0.080700
     60 H6Q1         4.1080    42.8470    30.5300 h1         1 QV4       0.052700
     61 H6Q2         4.7940    42.5040    32.1310 h1         1 QV4       0.052700
     62 HO2Q        10.7760    42.9560    30.3070 ho         1 QV4       0.540000
     63 HO3Q         8.6110    40.6770    29.5390 ho         1 QV4       0.467000
     64 HO4Q         5.6880    40.7510    30.0930 ho         1 QV4       0.514000
     65 HO6Q         4.9960    44.9730    32.1520 ho         1 QV4       0.511000
     66 H1P          9.8120    50.5160    29.3840 h2         1 QV4       0.098700
     67 H2P         10.0680    49.0020    31.2670 h1         1 QV4       0.101700
     68 H3P         10.3870    46.7820    29.1880 h1         1 QV4       0.053700
     69 H4P          8.1600    47.3170    31.2380 h1         1 QV4       0.063700
     70 H5P          8.1710    47.4230    28.1700 h1         1 QV4       0.070700
     71 H6P1         5.9770    47.8250    30.2540 h1         1 QV4       0.060200
     72 H6P2         5.9640    46.7420    28.8510 h1         1 QV4       0.060200
     73 HO2P        12.2100    48.0110    30.6700 ho         1 QV4       0.511000
     74 HO3P        10.6840    45.4160    30.9570 ho         1 QV4       0.541000
     75 HO6P         6.3930    49.5000    28.4570 ho         1 QV4       0.516000
     76 H1B         12.3550    52.2630    24.2530 h2         1 QV4       0.091700
     77 H2B         11.7930    52.6360    26.5830 h1         1 QV4       0.103700
     78 H3B         12.6170    49.7300    27.0400 h1         1 QV4       0.048700
     79 H4B          9.8700    51.0930    27.2370 h1         1 QV4       0.087700
     80 H5B         10.9440    48.9790    25.2950 h1         1 QV4       0.059700
     81 H6B1         8.8520    49.1750    24.1120 h1         1 QV4       0.045700
     82 H6B2         8.5060    48.7340    25.7840 h1         1 QV4       0.045700
     83 HO2B        13.9040    51.9590    27.5970 ho         1 QV4       0.514000
     84 HO3B        12.1390    50.1290    29.2100 ho         1 QV4       0.526000
     85 HO6B         7.0960    50.4100    24.9020 ho         1 QV4       0.527000
     86 H1S         22.1910    48.0160    20.1300 h2         1 QV4       0.085700
     87 H2S         20.3920    49.4900    19.3830 h1         1 QV4       0.050700
     88 H4S         18.2340    48.7370    20.5090 h1         1 QV4       0.052700
     89 H5S         19.8280    47.9450    23.0130 h1         1 QV4       0.063700
     90 H6S1        19.0550    45.6160    22.4580 hc         1 QV4       0.047367
     91 H6S2        17.6880    46.6570    22.8710 hc         1 QV4       0.047367
     92 H6S3        18.0110    46.2590    21.1760 hc         1 QV4       0.047367
     93 HO2S        21.2460    51.5910    20.1860 ho         1 QV4       0.527000
     94 HO3S        18.3680    51.6300    21.4490 ho         1 QV4       0.501000
     95 HN4S        17.8680    50.0820    23.0860 hn         1 QV4       0.449000
     96 H2T         15.4050    51.9700    21.5910 h1         1 QV4       0.052700
     97 H3T         15.7120    50.5800    24.2930 h1         1 QV4       0.072700
     98 H4T         13.2540    51.2050    22.5760 h1         1 QV4       0.070700
     99 H6T         15.3640    48.1040    21.2450 ha         1 QV4       0.179000
    100 H7T1        13.0660    47.4920    21.6940 h1         1 QV4       0.049200
    101 H7T2        13.0570    47.6120    23.4590 h1         1 QV4       0.049200
    102 HO2T        16.8850    52.8060    23.3240 ho         1 QV4       0.471000
    103 HO3T        14.5690    52.3420    25.1550 ho         1 QV4       0.535000
    104 HO7T        11.6990    49.4870    23.2090 ho         1 QV4       0.461000
    105 H1T         16.6020    50.1840    20.6500 h1         1 QV4       0.043700
    106 H3S         20.1200    50.3670    22.3030 h1         1 QV4       0.095700
    107 O1T         22.1650    48.6000    22.1210 oh         1 QV4      -0.747000
    108 HO1T        22.6530    49.4400    21.9530 ho         1 QV4       0.532000
@<TRIPOS>BOND
     1     1     2 1   
     2     1    10 1   
     3     1    20 1   
     4     1    55 1   
     5     2     3 1   
     6     2     7 1   
     7     2    56 1   
     8     3     4 1   
     9     3     8 1   
    10     3    57 1   
    11     4     5 1   
    12     4     9 1   
    13     4    58 1   
    14     5     6 1   
    15     5    10 1   
    16     5    59 1   
    17     6    11 1   
    18     6    60 1   
    19     6    61 1   
    20     7    62 1   
    21     8    63 1   
    22     9    64 1   
    23    11    65 1   
    24    12    13 1   
    25    12    21 1   
    26    12    31 1   
    27    12    66 1   
    28    13    14 1   
    29    13    18 1   
    30    13    67 1   
    31    14    15 1   
    32    14    19 1   
    33    14    68 1   
    34    15    16 1   
    35    15    20 1   
    36    15    69 1   
    37    16    17 1   
    38    16    21 1   
    39    16    70 1   
    40    17    22 1   
    41    17    71 1   
    42    17    72 1   
    43    18    73 1   
    44    19    74 1   
    45    22    75 1   
    46    23    24 1   
    47    23    32 1   
    48    23    53 1   
    49    23    76 1   
    50    24    25 1   
    51    24    29 1   
    52    24    77 1   
    53    25    26 1   
    54    25    30 1   
    55    25    78 1   
    56    26    27 1   
    57    26    31 1   
    58    26    79 1   
    59    27    28 1   
    60    27    32 1   
    61    27    80 1   
    62    28    33 1   
    63    28    81 1   
    64    28    82 1   
    65    29    83 1   
    66    30    84 1   
    67    33    85 1   
    68    34    35 1   
    69    34    42 1   
    70    34    86 1   
    71    34   107 1   
    72    35    36 1   
    73    35    40 1   
    74    35    87 1   
    75    36    37 1   
    76    36    41 1   
    77    36   106 1   
    78    37    38 1   
    79    37    43 1   
    80    37    88 1   
    81    38    39 1   
    82    38    42 1   
    83    38    89 1   
    84    39    90 1   
    85    39    91 1   
    86    39    92 1   
    87    40    93 1   
    88    41    94 1   
    89    43    44 1   
    90    43    95 1   
    91    44    45 1   
    92    44    49 1   
    93    44   105 1   
    94    45    46 1   
    95    45    51 1   
    96    45    96 1   
    97    46    47 1   
    98    46    52 1   
    99    46    97 1   
   100    47    48 1   
   101    47    53 1   
   102    47    98 1   
   103    48    49 2   
   104    48    50 1   
   105    49    99 1   
   106    50    54 1   
   107    50   100 1   
   108    50   101 1   
   109    51   102 1   
   110    52   103 1   
   111    54   104 1   
   112   107   108 1   
@<TRIPOS>SUBSTRUCTURE
     1 QV4         1 TEMP              0 ****  ****    0 ROOT
