@<TRIPOS>MOLECULE
QV5
   54    57     1     0     0
SMALL
bcc


@<TRIPOS>ATOM
      1 C10         16.1010    31.8450    15.9260 ca         1 QV5      -0.128800
      2 C15         20.9280    31.8670    14.7140 ca         1 QV5      -0.189000
      3 C20         18.6440    33.5560    14.9190 ca         1 QV5      -0.032000
      4 C21         18.5450    32.1930    15.2180 ca         1 QV5      -0.119800
      5 C22         17.4020    28.8120    16.2160 c          1 QV5       0.708300
      6 C26         11.5020    34.0200    15.6440 c6         1 QV5       0.203300
      7 C01         15.9360    32.2680    20.3680 c3         1 QV5      -0.108100
      8 C02         15.8510    31.0310    19.4890 c3         1 QV5       0.155100
      9 C03         16.6920    29.8930    20.0360 c3         1 QV5      -0.108100
     10 O04         16.3460    31.3050    18.1750 os         1 QV5      -0.321900
     11 C05         15.5510    31.8140    17.2220 ca         1 QV5       0.196100
     12 C06         14.2710    32.2960    17.4510 ca         1 QV5      -0.282000
     13 C07         13.4880    32.8280    16.4120 ca         1 QV5       0.214600
     14 C08         14.0430    32.8720    15.1290 ca         1 QV5      -0.240000
     15 C09         15.3260    32.3930    14.9130 ca         1 QV5      -0.049000
     16 C11         17.4640    31.3680    15.6590 cc         1 QV5      -0.005400
     17 C12         17.9880    30.1050    15.8010 cd         1 QV5      -0.121300
     18 N13         19.3210    30.1210    15.4810 na         1 QV5      -0.131400
     19 C14         19.6870    31.3710    15.1180 ca         1 QV5      -0.014200
     20 C16         20.9830    33.2050    14.4250 ca         1 QV5       0.167900
     21 F17         22.1430    33.7430    14.0350 f          1 QV5      -0.128900
     22 C18         19.8650    34.0500    14.5230 ca         1 QV5      -0.057600
     23 CL1         20.0610    35.7220    14.1380 cl         1 QV5      -0.089400
     24 N23         16.0680    28.7270    16.2060 nt         1 QV5      -0.656000
     25 O24         18.1380    27.8810    16.5210 o          1 QV5      -0.630100
     26 N25         12.2240    33.3250    16.6940 nh         1 QV5      -0.660000
     27 C27         10.3780    34.8530    16.2380 c6         1 QV5       0.149300
     28 N28          9.4960    34.0090    17.0170 n7         1 QV5      -0.805200
     29 C29         10.2280    33.3960    18.1070 c6         1 QV5       0.149300
     30 C30         11.3430    32.5350    17.5460 c6         1 QV5       0.203300
     31 H1          21.8070    31.2410    14.6350 ha         1 QV5       0.157000
     32 H2          17.7860    34.2110    14.9960 ha         1 QV5       0.156000
     33 H3          11.0830    33.3220    14.9040 h1         1 QV5       0.045700
     34 H4          12.1810    34.6910    15.1190 h1         1 QV5       0.045700
     35 H5          15.5540    32.0400    21.3630 hc         1 QV5       0.048700
     36 H6          16.9710    32.5970    20.4720 hc         1 QV5       0.048700
     37 H7          15.3540    33.1020    19.9760 hc         1 QV5       0.048700
     38 H8          14.8120    30.6920    19.4190 h1         1 QV5       0.037700
     39 H9          16.3390    29.6230    21.0310 hc         1 QV5       0.048700
     40 H10         16.6230    29.0100    19.4000 hc         1 QV5       0.048700
     41 H11         17.7410    30.1820    20.1180 hc         1 QV5       0.048700
     42 H12         13.8790    32.3090    18.4570 ha         1 QV5       0.140000
     43 H13         13.4860    33.2540    14.2860 ha         1 QV5       0.137000
     44 H14         15.7290    32.4210    13.9070 ha         1 QV5       0.138000
     45 H15         19.9190    29.3110    15.5060 hn         1 QV5       0.324700
     46 H16         15.6190    27.8790    16.5120 hn         1 QV5       0.323500
     47 H17         15.4780    29.4890    15.9190 hn         1 QV5       0.323500
     48 H18         10.8220    35.6670    16.8320 h1         1 QV5       0.039950
     49 H19          9.8180    35.3130    15.4220 h1         1 QV5       0.039950
     50 H20          8.7290    34.5570    17.3840 hn         1 QV5       0.360800
     51 H22         10.6700    34.1340    18.7940 h1         1 QV5       0.039950
     52 H23          9.5560    32.7660    18.6910 h1         1 QV5       0.039950
     53 H24         10.9100    31.7000    16.9750 h1         1 QV5       0.045700
     54 H25         11.8990    32.1060    18.3750 h1         1 QV5       0.045700
@<TRIPOS>BOND
     1     1    11 ar  
     2     1    15 ar  
     3     1    16 1   
     4     2    19 ar  
     5     2    20 ar  
     6     2    31 1   
     7     3     4 ar  
     8     3    22 ar  
     9     3    32 1   
    10     4    16 1   
    11     4    19 ar  
    12     5    17 1   
    13     5    24 1   
    14     5    25 2   
    15     6    26 1   
    16     6    27 1   
    17     6    33 1   
    18     6    34 1   
    19     7     8 1   
    20     7    35 1   
    21     7    36 1   
    22     7    37 1   
    23     8     9 1   
    24     8    10 1   
    25     8    38 1   
    26     9    39 1   
    27     9    40 1   
    28     9    41 1   
    29    10    11 1   
    30    11    12 ar  
    31    12    13 ar  
    32    12    42 1   
    33    13    14 ar  
    34    13    26 1   
    35    14    15 ar  
    36    14    43 1   
    37    15    44 1   
    38    16    17 2   
    39    17    18 1   
    40    18    19 1   
    41    18    45 1   
    42    20    21 1   
    43    20    22 ar  
    44    22    23 1   
    45    24    46 1   
    46    24    47 1   
    47    26    30 1   
    48    27    28 1   
    49    27    48 1   
    50    27    49 1   
    51    28    29 1   
    52    28    50 1   
    53    29    30 1   
    54    29    51 1   
    55    29    52 1   
    56    30    53 1   
    57    30    54 1   
@<TRIPOS>SUBSTRUCTURE
     1 QV5         1 TEMP              0 ****  ****    0 ROOT
