@<TRIPOS>MOLECULE
QV5
   54    57     1     0     0
SMALL
No Charge or Current Charge


@<TRIPOS>ATOM
      1 C10         15.9860    31.5620    15.7890 ca         1 QV5      -0.128800
      2 C15         20.9010    31.4870    15.3030 ca         1 QV5      -0.171000
      3 C20         18.7520    33.1500    16.1370 ca         1 QV5      -0.014000
      4 C21         18.5460    31.8510    15.6530 ca         1 QV5      -0.119800
      5 C22         16.7850    28.6740    14.7260 c          1 QV5       0.641300
      6 C26         11.3370    33.8540    15.6950 c6         1 QV5       0.203300
      7 C01         16.5900    33.4410    19.5140 c3         1 QV5      -0.108100
      8 C02         16.3450    31.9160    19.4860 c3         1 QV5       0.178300
      9 C03         17.3900    31.1450    20.3130 c3         1 QV5      -0.108100
     10 O04         16.4790    31.4560    18.1290 os         1 QV5      -0.345100
     11 C05         15.5780    31.7560    17.1230 ca         1 QV5       0.196100
     12 C06         14.2750    32.2190    17.3950 ca         1 QV5      -0.264000
     13 C07         13.3880    32.5110    16.3490 ca         1 QV5       0.353000
     14 C08         13.8120    32.3390    15.0200 ca         1 QV5      -0.222000
     15 C09         15.1050    31.8720    14.7390 ca         1 QV5      -0.031000
     16 C11         17.3400    31.1050    15.4850 cc         1 QV5      -0.005400
     17 C12         17.6840    29.8360    15.0020 cd         1 QV5      -0.121300
     18 N13         19.0970    29.8130    14.8310 na         1 QV5      -0.181700
     19 C14         19.5720    31.0460    15.2510 ca         1 QV5      -0.014200
     20 C16         21.1480    32.7890    15.7860 ca         1 QV5       0.203000
     21 F17         22.4230    33.2370    15.8490 f          1 QV5      -0.164000
     22 C18         20.0780    33.6220    16.2040 ca         1 QV5       0.034000
     23 Cl1         20.3860    35.2480    16.8140 cl         1 QV5      -0.181000
     24 N23         15.4740    28.8090    15.0010 nt         1 QV5      -0.589000
     25 O24         17.1940    27.6140    14.2790 o          1 QV5      -0.630100
     26 N25         12.0900    32.9760    16.6510 nh         1 QV5      -0.798400
     27 C27         10.2090    34.6810    16.4010 c6         1 QV5       0.149300
     28 N28          9.2930    33.8390    17.2230 n7         1 QV5      -0.860400
     29 C29         10.0630    33.0140    18.1990 c6         1 QV5       0.149300
     30 C30         11.1880    32.1570    17.5250 c6         1 QV5       0.203300
     31 H1          21.7210    30.8480    14.9860 ha         1 QV5       0.139000
     32 H2          17.9180    33.7710    16.4540 ha         1 QV5       0.138000
     33 H3          10.8800    33.2370    14.9070 h1         1 QV5       0.045700
     34 H4          12.0250    34.5580    15.2040 h1         1 QV5       0.045700
     35 H5          16.5570    33.8130    20.5450 hc         1 QV5       0.048700
     36 H6          17.5740    33.6850    19.0950 hc         1 QV5       0.048700
     37 H7          15.8270    33.9770    18.9400 hc         1 QV5       0.048700
     38 H8          15.3520    31.6840    19.8900 h1         1 QV5       0.037700
     39 H9          17.3500    31.4530    21.3650 hc         1 QV5       0.048700
     40 H10         17.1960    30.0670    20.2660 hc         1 QV5       0.048700
     41 H11         18.4020    31.3330    19.9360 hc         1 QV5       0.048700
     42 H12         13.9400    32.3680    18.4140 ha         1 QV5       0.122000
     43 H13         13.1410    32.5570    14.1950 ha         1 QV5       0.119000
     44 H14         15.4240    31.7490    13.7050 ha         1 QV5       0.120000
     45 H15         19.6490    29.0300    14.4950 hn         1 QV5       0.375000
     46 H16         14.8510    28.0360    14.8280 hn         1 QV5       0.323500
     47 H17         15.1320    29.6770    15.3830 hn         1 QV5       0.323500
     48 H18         10.6820    35.4340    17.0500 h1         1 QV5       0.039950
     49 H19          9.6280    35.2260    15.6410 h1         1 QV5       0.039950
     50 H20          8.6430    34.4500    17.7360 hn         1 QV5       0.416000
     51 H22         10.5280    33.6790    18.9420 h1         1 QV5       0.039950
     52 H23          9.3750    32.3490    18.7420 h1         1 QV5       0.039950
     53 H24         10.7150    31.3660    16.9240 h1         1 QV5       0.045700
     54 H25         11.7600    31.6550    18.3190 h1         1 QV5       0.045700
@<TRIPOS>BOND
     1     1    11 ar  
     2     1    15 ar  
     3     1    16 1   
     4     2    19 ar  
     5     2    20 ar  
     6     2    31 1   
     7     3     4 ar  
     8     3    22 ar  
     9     3    32 1   
    10     4    16 1   
    11     4    19 ar  
    12     5    17 1   
    13     5    24 1   
    14     5    25 2   
    15     6    26 1   
    16     6    27 1   
    17     6    33 1   
    18     6    34 1   
    19     7     8 1   
    20     7    35 1   
    21     7    36 1   
    22     7    37 1   
    23     8     9 1   
    24     8    10 1   
    25     8    38 1   
    26     9    39 1   
    27     9    40 1   
    28     9    41 1   
    29    10    11 1   
    30    11    12 ar  
    31    12    13 ar  
    32    12    42 1   
    33    13    14 ar  
    34    13    26 1   
    35    14    15 ar  
    36    14    43 1   
    37    15    44 1   
    38    16    17 2   
    39    17    18 1   
    40    18    19 1   
    41    18    45 1   
    42    20    21 1   
    43    20    22 ar  
    44    22    23 1   
    45    24    46 1   
    46    24    47 1   
    47    26    30 1   
    48    27    28 1   
    49    27    48 1   
    50    27    49 1   
    51    28    29 1   
    52    28    50 1   
    53    29    30 1   
    54    29    51 1   
    55    29    52 1   
    56    30    53 1   
    57    30    54 1   
@<TRIPOS>SUBSTRUCTURE
     1 QV5         1 TEMP              0 ****  ****    0 ROOT
