@<TRIPOS>MOLECULE
QV6
   69    73     1     0     0
SMALL
No Charge or Current Charge


@<TRIPOS>ATOM
      1 CAA          5.7350     3.1490     1.5430 c3         1 QV6      -0.030800
      2 CAC          8.2130    -0.5910    -0.7660 c3         1 QV6      -0.058800
      3 CAD         -6.9370     0.0680     1.5630 c3         1 QV6      -0.039800
      4 CAE         -4.0440     0.2420    -2.7560 c3         1 QV6      -0.056800
      5 OAF          2.8240    -0.3460     1.9880 o          1 QV6      -0.508100
      6 OAG         -1.7520    -1.2220    -0.3280 o          1 QV6      -0.475100
      7 OAH          4.0910    -2.1270    -2.2480 o          1 QV6      -0.693200
      8 OAI          6.1650    -2.9870    -1.1710 o          1 QV6      -0.693200
      9 OAJ         -8.2510     0.0310    -0.9500 o          1 QV6      -0.695867
     10 OAK         -6.7380    -1.7710    -1.7520 o          1 QV6      -0.695867
     11 OAL          6.3190    -1.5610    -3.2030 o          1 QV6      -0.693200
     12 OAM         -6.9040     0.3780    -2.9930 o          1 QV6      -0.695867
     13 CAN         -0.0210    -2.5790     4.1970 ca         1 QV6      -0.119000
     14 CAO         -1.2790    -2.7800     3.6090 ca         1 QV6      -0.110000
     15 CAP          1.3700     2.7430    -0.7630 ca         1 QV6      -0.136000
     16 CAQ          0.0460     2.6190    -1.1950 ca         1 QV6      -0.153000
     17 CAR          0.9250    -1.7550     3.5670 ca         1 QV6      -0.072000
     18 CAS         -1.5890    -2.1570     2.3900 ca         1 QV6      -0.063000
     19 CAT          6.8690     1.2260     0.3430 ca         1 QV6      -0.125000
     20 CAU         -4.6930     1.1230     1.4510 ca         1 QV6      -0.149000
     21 CAV          4.4400     0.2410    -0.6140 ca         1 QV6      -0.066000
     22 NAW          3.2500     2.0600     0.4990 nu         1 QV6      -0.807000
     23 NAX         -2.0850     1.5770    -1.1690 nu         1 QV6      -0.828000
     24 CAY          5.6760     1.8950     0.6720 ca         1 QV6      -0.106300
     25 CAZ         -3.5030     1.5270     0.8370 ca         1 QV6      -0.085300
     26 CBA          6.8670     0.0670    -0.4600 ca         1 QV6      -0.008300
     27 CBB         -5.7330     0.5140     0.7320 ca         1 QV6       0.004700
     28 CBC         -4.3450     0.6220    -1.2910 ca         1 QV6       0.027700
     29 CBD          4.4480     1.3930     0.1940 ca         1 QV6       0.278000
     30 CBE          1.9290     1.8130     0.1230 ca         1 QV6       0.308000
     31 CBF         -0.7460     1.5490    -0.7650 ca         1 QV6       0.358000
     32 CBG         -3.3020     1.2390    -0.5350 ca         1 QV6       0.243000
     33 CBH          5.6330    -0.4420    -0.9520 ca         1 QV6      -0.196500
     34 CBI         -5.6120     0.3260    -0.6800 ca         1 QV6      -0.203500
     35 CBJ          1.6480    -0.2440     1.6590 c          1 QV6       0.593300
     36 CBK         -0.9690    -0.6790     0.4420 c          1 QV6       0.591300
     37 CBL          0.6200    -1.1140     2.3440 ca         1 QV6      -0.123600
     38 CBM         -0.6460    -1.3190     1.7570 ca         1 QV6      -0.111600
     39 CBN          1.1450     0.7160     0.5860 ca         1 QV6      -0.127600
     40 CBO         -0.1850     0.5570     0.0790 ca         1 QV6      -0.171600
     41 SBP          5.5370    -1.9690    -2.0270 s6         1 QV6       1.255100
     42 SBQ         -7.0510    -0.3340    -1.7160 s6         1 QV6       1.255100
     43 HAA          5.3340     4.0190     1.0090 hc         1 QV6       0.024700
     44 HAAA         5.1510     3.0180     2.4620 hc         1 QV6       0.024700
     45 HAAB         6.7620     3.3930     1.8410 hc         1 QV6       0.024700
     46 HAB         -1.7270     1.5950     2.1090 hc         1 QV6       0.033033
     47 HABA        -1.9750     3.0680     1.1430 hc         1 QV6       0.033033
     48 HABB        -2.9690     2.7620     2.5560 hc         1 QV6       0.033033
     49 HAC          8.2690    -1.6020    -0.3500 hc         1 QV6       0.046700
     50 HACA         8.3980    -0.6490    -1.8440 hc         1 QV6       0.046700
     51 HACB         9.0470    -0.0260    -0.3350 hc         1 QV6       0.046700
     52 HAD         -7.7650     0.7810     1.4820 hc         1 QV6       0.042700
     53 HADA        -7.2920    -0.9260     1.2660 hc         1 QV6       0.042700
     54 HADB        -6.6880    -0.0080     2.6280 hc         1 QV6       0.042700
     55 HAE         -4.5500    -0.6800    -3.0590 hc         1 QV6       0.054367
     56 HAEA        -4.3390     1.0440    -3.4420 hc         1 QV6       0.054367
     57 HAEB        -2.9830     0.0330    -2.9320 hc         1 QV6       0.054367
     58 HAN          0.2220    -3.0640     5.1400 ha         1 QV6       0.099000
     59 HAO         -2.0110    -3.4210     4.0950 ha         1 QV6       0.105000
     60 HAP          1.9650     3.5850    -1.1090 ha         1 QV6       0.099000
     61 HAQ         -0.3750     3.3760    -1.8510 ha         1 QV6       0.102000
     62 HAR          1.8980    -1.6130     4.0350 ha         1 QV6       0.128000
     63 HAS         -2.5660    -2.3240     1.9390 ha         1 QV6       0.146000
     64 HAT          7.8140     1.6150     0.7160 ha         1 QV6       0.080000
     65 HAU         -4.8180     1.3010     2.5170 ha         1 QV6       0.086000
     66 HAV          3.4860    -0.1200    -0.9820 ha         1 QV6       0.150000
     67 HNAW         3.4030     3.0040     0.8380 hn         1 QV6       0.299000
     68 HNAX        -2.2060     1.9120    -2.1200 hn         1 QV6       0.326000
     69 CAB         -2.4840     2.2740     1.7020 c3         1 QV6      -0.039800
@<TRIPOS>BOND
     1     1    24 1   
     2     1    43 1   
     3     1    44 1   
     4     1    45 1   
     5     2    26 1   
     6     2    49 1   
     7     2    50 1   
     8     2    51 1   
     9     3    27 1   
    10     3    52 1   
    11     3    53 1   
    12     3    54 1   
    13     4    28 1   
    14     4    55 1   
    15     4    56 1   
    16     4    57 1   
    17     5    35 2   
    18     6    36 2   
    19     7    41 1   
    20     8    41 1   
    21     9    42 1   
    22    10    42 1   
    23    11    41 1   
    24    12    42 1   
    25    13    14 ar  
    26    13    17 ar  
    27    13    58 1   
    28    14    18 ar  
    29    14    59 1   
    30    15    16 ar  
    31    15    30 ar  
    32    15    60 1   
    33    16    31 ar  
    34    16    61 1   
    35    17    37 ar  
    36    17    62 1   
    37    18    38 ar  
    38    18    63 1   
    39    19    24 ar  
    40    19    26 ar  
    41    19    64 1   
    42    20    25 ar  
    43    20    27 ar  
    44    20    65 1   
    45    21    29 ar  
    46    21    33 ar  
    47    21    66 1   
    48    22    29 1   
    49    22    30 1   
    50    22    67 1   
    51    23    31 1   
    52    23    32 1   
    53    23    68 1   
    54    24    29 ar  
    55    25    32 ar  
    56    25    69 1   
    57    26    33 ar  
    58    27    34 ar  
    59    28    32 ar  
    60    28    34 ar  
    61    30    39 ar  
    62    31    40 ar  
    63    33    41 1   
    64    34    42 1   
    65    35    37 1   
    66    35    39 1   
    67    36    38 1   
    68    36    40 1   
    69    37    38 ar  
    70    39    40 ar  
    71    46    69 1   
    72    47    69 1   
    73    48    69 1   
@<TRIPOS>SUBSTRUCTURE
     1 QV6         1 TEMP              0 ****  ****    0 ROOT
