@<TRIPOS>MOLECULE
QV6
   69    73     1     0     0
SMALL
bcc


@<TRIPOS>ATOM
      1 CAA          5.6700     3.0700     1.4670 c3         1 QV6      -0.030800
      2 CAC          7.5830    -1.2520    -0.1840 c3         1 QV6      -0.058800
      3 CAD         -6.3290    -0.6020     1.7690 c3         1 QV6      -0.039800
      4 CAE         -3.9300     0.4260    -2.6540 c3         1 QV6      -0.056800
      5 OAF          2.6730     0.5060     2.0480 o          1 QV6      -0.508100
      6 OAG         -1.6090    -0.8450    -0.6720 o          1 QV6      -0.475100
      7 OAH          3.5060    -2.0310    -2.1320 o          1 QV6      -0.693200
      8 OAI          5.0750    -3.1990    -0.6480 o          1 QV6      -0.693200
      9 OAJ         -7.7760    -0.7730    -0.5960 o          1 QV6      -0.695867
     10 OAK         -6.0820    -2.0240    -1.8590 o          1 QV6      -0.695867
     11 OAL          5.8920    -2.1190    -2.7050 o          1 QV6      -0.693200
     12 OAM         -6.8100     0.2120    -2.6020 o          1 QV6      -0.695867
     13 CAN          0.1830    -2.3770     3.7170 ca         1 QV6      -0.137000
     14 CAO         -0.9940    -2.7010     3.0490 ca         1 QV6      -0.128000
     15 CAP          1.2700     3.1340    -0.9680 ca         1 QV6      -0.154000
     16 CAQ         -0.0540     3.0410    -1.2880 ca         1 QV6      -0.171000
     17 CAR          1.0240    -1.3990     3.2150 ca         1 QV6      -0.090000
     18 CAS         -1.3250    -2.0520     1.8720 ca         1 QV6      -0.081000
     19 CAT          6.5270     0.8880     0.5580 ca         1 QV6      -0.143000
     20 CAU         -4.3430     0.8460     1.5670 ca         1 QV6      -0.167000
     21 CAV          4.1200     0.3100    -0.6130 ca         1 QV6      -0.084000
     22 NAW          3.2260     2.4330     0.1870 nu         1 QV6      -0.635000
     23 NAX         -2.1700     1.9670    -1.1730 nu         1 QV6      -0.656000
     24 CAY          5.4880     1.8030     0.6890 ca         1 QV6      -0.106300
     25 CAZ         -3.3270     1.5270     0.9180 ca         1 QV6      -0.085300
     26 CBA          6.4080    -0.3180    -0.1240 ca         1 QV6      -0.008300
     27 CBB         -5.3170     0.1060     0.9060 ca         1 QV6       0.004700
     28 CBC         -4.1690     0.6180    -1.1800 ca         1 QV6       0.027700
     29 CBD          4.2630     1.5010     0.0900 ca         1 QV6       0.139600
     30 CBE          1.8990     2.2040    -0.1180 ca         1 QV6       0.169600
     31 CBF         -0.8380     1.9530    -0.8570 ca         1 QV6       0.219600
     32 CBG         -3.2200     1.3630    -0.4650 ca         1 QV6       0.104600
     33 CBH          5.1680    -0.5910    -0.7120 ca         1 QV6      -0.196500
     34 CBI         -5.2620     0.0670    -0.4940 ca         1 QV6      -0.203500
     35 CBJ          1.6000     0.3180     1.5060 c          1 QV6       0.593300
     36 CBK         -0.8450    -0.3460     0.1300 c          1 QV6       0.591300
     37 CBL          0.6860    -0.7230     2.0450 ca         1 QV6      -0.123600
     38 CBM         -0.4900    -1.0550     1.3750 ca         1 QV6      -0.111600
     39 CBN          1.1260     1.1460     0.3790 ca         1 QV6      -0.127600
     40 CBO         -0.2050     0.9630    -0.0990 ca         1 QV6      -0.171600
     41 SBP          4.8880    -2.1110    -1.6250 s6         1 QV6       1.255100
     42 SBQ         -6.5880    -0.6960    -1.4630 s6         1 QV6       1.255100
     43 HAA          5.6060     3.9580     0.8320 hc         1 QV6       0.024700
     44 HAAA         4.9020     3.1740     2.2360 hc         1 QV6       0.024700
     45 HAAB         6.6440     3.0950     1.9540 hc         1 QV6       0.024700
     46 HAB         -1.4830     1.8970     1.9970 hc         1 QV6       0.033033
     47 HABA        -2.1260     3.3050     1.1760 hc         1 QV6       0.033033
     48 HABB        -2.8960     2.7080     2.6440 hc         1 QV6       0.033033
     49 HAC          7.3460    -2.2210     0.2560 hc         1 QV6       0.046700
     50 HACA         7.8970    -1.4400    -1.2100 hc         1 QV6       0.046700
     51 HACB         8.4310    -0.8350     0.3570 hc         1 QV6       0.046700
     52 HAD         -7.3040    -0.1180     1.7520 hc         1 QV6       0.042700
     53 HADA        -6.4790    -1.6370     1.4670 hc         1 QV6       0.042700
     54 HADB        -5.9760    -0.6050     2.8000 hc         1 QV6       0.042700
     55 HAE         -4.3710    -0.4910    -3.0290 hc         1 QV6       0.054367
     56 HAEA        -4.3290     1.2500    -3.2480 hc         1 QV6       0.054367
     57 HAEB        -2.8590     0.3750    -2.8380 hc         1 QV6       0.054367
     58 HAN          0.4430    -2.8910     4.6340 ha         1 QV6       0.117000
     59 HAO         -1.6510    -3.4610     3.4500 ha         1 QV6       0.123000
     60 HAP          1.8500     3.9620    -1.3570 ha         1 QV6       0.117000
     61 HAQ         -0.5120     3.8140    -1.8950 ha         1 QV6       0.120000
     62 HAR          1.9440    -1.1570     3.7300 ha         1 QV6       0.146000
     63 HAS         -2.2390    -2.3010     1.3490 ha         1 QV6       0.164000
     64 HAT          7.4780     1.1250     1.0240 ha         1 QV6       0.098000
     65 HAU         -4.4020     0.9200     2.6480 ha         1 QV6       0.104000
     66 HAV          3.1780     0.0760    -1.0890 ha         1 QV6       0.168000
     67 HNAW         3.5180     3.3860     0.0230 hn         1 QV6       0.403800
     68 HNAX        -2.4290     2.5650    -1.9420 hn         1 QV6       0.430800
     69 CAB         -2.4090     2.4040     1.7190 c3         1 QV6      -0.039800
@<TRIPOS>BOND
     1     1    24 1   
     2     1    43 1   
     3     1    44 1   
     4     1    45 1   
     5     2    26 1   
     6     2    49 1   
     7     2    50 1   
     8     2    51 1   
     9     3    27 1   
    10     3    52 1   
    11     3    53 1   
    12     3    54 1   
    13     4    28 1   
    14     4    55 1   
    15     4    56 1   
    16     4    57 1   
    17     5    35 2   
    18     6    36 2   
    19     7    41 1   
    20     8    41 1   
    21     9    42 1   
    22    10    42 1   
    23    11    41 1   
    24    12    42 1   
    25    13    14 ar  
    26    13    17 ar  
    27    13    58 1   
    28    14    18 ar  
    29    14    59 1   
    30    15    16 ar  
    31    15    30 ar  
    32    15    60 1   
    33    16    31 ar  
    34    16    61 1   
    35    17    37 ar  
    36    17    62 1   
    37    18    38 ar  
    38    18    63 1   
    39    19    24 ar  
    40    19    26 ar  
    41    19    64 1   
    42    20    25 ar  
    43    20    27 ar  
    44    20    65 1   
    45    21    29 ar  
    46    21    33 ar  
    47    21    66 1   
    48    22    29 1   
    49    22    30 1   
    50    22    67 1   
    51    23    31 1   
    52    23    32 1   
    53    23    68 1   
    54    24    29 ar  
    55    25    32 ar  
    56    25    69 1   
    57    26    33 ar  
    58    27    34 ar  
    59    28    32 ar  
    60    28    34 ar  
    61    30    39 ar  
    62    31    40 ar  
    63    33    41 1   
    64    34    42 1   
    65    35    37 1   
    66    35    39 1   
    67    36    38 1   
    68    36    40 1   
    69    37    38 ar  
    70    39    40 ar  
    71    46    69 1   
    72    47    69 1   
    73    48    69 1   
@<TRIPOS>SUBSTRUCTURE
     1 QV6         1 TEMP              0 ****  ****    0 ROOT
