@<TRIPOS>MOLECULE
QV7
   55    58     1     0     0
SMALL
No Charge or Current Charge


@<TRIPOS>ATOM
      1 OAA        -11.4250     1.4050    -1.0050 o          1 QV7      -0.708533
      2 OAB        -11.0320     2.2070     1.3200 o          1 QV7      -0.708533
      3 OAC          6.7250     4.5850    -2.0150 o          1 QV7      -0.716200
      4 OAD          8.0230     4.1700     0.0680 o          1 QV7      -0.716200
      5 OAE          0.8190    -3.2150     0.1210 o          1 QV7      -0.691533
      6 OAF          0.0460    -2.8090    -2.2080 o          1 QV7      -0.691533
      7 OAG          6.0250    -3.8970     1.7510 o          1 QV7      -0.703533
      8 OAH          7.7120    -3.0910     0.1090 o          1 QV7      -0.703533
      9 OAJ        -11.3630    -0.2300     0.8720 o          1 QV7      -0.708533
     10 OAK          5.9640     5.5840     0.1360 o          1 QV7      -0.716200
     11 OAL         -1.4620    -3.9360    -0.5790 o          1 QV7      -0.691533
     12 OAM          5.6360    -4.2070    -0.6900 o          1 QV7      -0.703533
     13 CAN         -2.0400     1.1220     0.4060 ca         1 QV7      -0.070000
     14 CAO         -6.8980     1.8530    -0.0060 ca         1 QV7      -0.122000
     15 CAP         -7.2190    -0.5160    -0.4380 ca         1 QV7      -0.122000
     16 CAQ         -0.6620     0.9700     0.1870 ca         1 QV7      -0.161000
     17 CAR         -8.2810     2.0050     0.2020 ca         1 QV7      -0.041000
     18 CAS         -8.6030    -0.3690    -0.2310 ca         1 QV7      -0.041000
     19 CAT          4.3240     3.1220    -0.0400 ca         1 QV7      -0.016000
     20 CAU          3.5550     1.9690     0.1880 ca         1 QV7      -0.157000
     21 CAV         -2.3630    -1.2320    -0.0940 ca         1 QV7       0.019000
     22 CAW          6.3200     1.7530    -0.2030 ca         1 QV7       0.015000
     23 CAX          6.1860    -0.6570     0.0680 ca         1 QV7       0.059000
     24 NAZ         -4.2800     0.1660     0.4830 ne         1 QV7      -0.180400
     25 NBA          1.2770    -0.3600    -0.3800 ne         1 QV7      -0.312400
     26 NBB          1.9950    -0.4180     0.6620 nf         1 QV7      -0.151400
     27 CBC         -6.3630     0.5920    -0.3220 ca         1 QV7       0.112400
     28 CBD         -2.8970     0.0200     0.2630 ca         1 QV7       0.011400
     29 CBE          4.0550    -1.7480     0.4970 ca         1 QV7       0.329100
     30 CBF         -0.1170    -0.2800    -0.1660 ca         1 QV7       0.246400
     31 CBG         -9.1460     0.8930     0.0980 ca         1 QV7      -0.230500
     32 CBH          5.7150     3.0230    -0.2320 ca         1 QV7      -0.276500
     33 CBI         -0.9740    -1.3960    -0.3100 ca         1 QV7      -0.221500
     34 CBJ          5.4480    -1.8320     0.3100 ca         1 QV7      -0.302500
     35 CBK          3.3990    -0.4910     0.4460 ca         1 QV7      -0.117600
     36 CBL          5.5500     0.5940     0.0270 ca         1 QV7      -0.146000
     37 CBM          4.1560     0.6890     0.2210 ca         1 QV7       0.095000
     38 SBN        -10.9730     1.0930     0.3600 s6         1 QV7       1.275100
     39 SBP         -0.3130    -3.0440    -0.8020 s6         1 QV7       1.268100
     40 HOAI         2.3740    -2.7210     0.5230 ho         1 QV7       0.546000
     41 HAN         -2.4430     2.0940     0.6810 ha         1 QV7       0.110000
     42 HAO         -6.2420     2.7150     0.0770 ha         1 QV7       0.114500
     43 HAP         -6.8120    -1.4920    -0.6900 ha         1 QV7       0.114500
     44 HAQ         -0.0080     1.8310     0.2940 ha         1 QV7       0.121000
     45 HAR         -8.6780     2.9890     0.4410 ha         1 QV7       0.117500
     46 HAS         -9.2510    -1.2370    -0.3290 ha         1 QV7       0.117500
     47 HAT          3.8310     4.0910    -0.0680 ha         1 QV7       0.106000
     48 HAU          2.4860     2.0870     0.3360 ha         1 QV7       0.110000
     49 HAV         -3.0440    -2.0710    -0.2070 ha         1 QV7       0.143000
     50 HAW          7.3940     1.6640    -0.3580 ha         1 QV7       0.121000
     51 HAX          7.2620    -0.7010    -0.0810 ha         1 QV7       0.131000
     52 SBO          6.7370     4.5340    -0.5450 s6         1 QV7       1.281100
     53 OAI          3.3310    -2.8770     0.7570 oh         1 QV7      -0.468100
     54 NAY         -4.9720     0.4440    -0.5400 nf         1 QV7      -0.250400
     55 SBQ          6.3130    -3.4560     0.3780 s6         1 QV7       1.285100
@<TRIPOS>BOND
     1     1    38 1   
     2     2    38 1   
     3     3    52 1   
     4     4    52 1   
     5     5    39 1   
     6     6    39 1   
     7     7    55 1   
     8     8    55 1   
     9     9    38 1   
    10    10    52 1   
    11    11    39 1   
    12    12    55 1   
    13    13    16 ar  
    14    13    28 ar  
    15    13    41 1   
    16    14    17 ar  
    17    14    27 ar  
    18    14    42 1   
    19    15    18 ar  
    20    15    27 ar  
    21    15    43 1   
    22    16    30 ar  
    23    16    44 1   
    24    17    31 ar  
    25    17    45 1   
    26    18    31 ar  
    27    18    46 1   
    28    19    20 ar  
    29    19    32 ar  
    30    19    47 1   
    31    20    37 ar  
    32    20    48 1   
    33    21    28 ar  
    34    21    33 ar  
    35    21    49 1   
    36    22    32 ar  
    37    22    36 ar  
    38    22    50 1   
    39    23    34 ar  
    40    23    36 ar  
    41    23    51 1   
    42    24    28 1   
    43    24    54 2   
    44    25    26 2   
    45    25    30 1   
    46    26    35 1   
    47    27    54 1   
    48    29    34 ar  
    49    29    35 ar  
    50    29    53 1   
    51    30    33 ar  
    52    31    38 1   
    53    32    52 1   
    54    33    39 1   
    55    34    55 1   
    56    35    37 ar  
    57    36    37 ar  
    58    40    53 1   
@<TRIPOS>SUBSTRUCTURE
     1 QV7         1 TEMP              0 ****  ****    0 ROOT
