@<TRIPOS>MOLECULE
QV7
   55    58     1     0     0
SMALL
abcg2


@<TRIPOS>ATOM
      1 OAA        -11.0610     1.4930    -1.5090 o          1 QV7      -0.708533
      2 OAB        -10.9690     2.6280     0.6710 o          1 QV7      -0.708533
      3 OAC          6.6190     5.2290    -1.1520 o          1 QV7      -0.716200
      4 OAD          8.0760     4.2320     0.5630 o          1 QV7      -0.716200
      5 OAE          0.4630    -3.4100     1.8500 o          1 QV7      -0.691533
      6 OAF          0.4200    -3.9670    -0.5520 o          1 QV7      -0.691533
      7 OAG          5.7820    -3.9680     0.6460 o          1 QV7      -0.703533
      8 OAH          7.5560    -2.8820    -0.6610 o          1 QV7      -0.703533
      9 OAJ        -11.3370     0.1950     0.5660 o          1 QV7      -0.708533
     10 OAK          6.0960     5.5370     1.2310 o          1 QV7      -0.716200
     11 OAL         -1.5380    -4.4370     0.8540 o          1 QV7      -0.691533
     12 OAM          5.5600    -3.7460    -1.8000 o          1 QV7      -0.703533
     13 CAN         -2.0890     0.5780    -0.2130 ca         1 QV7      -0.070000
     14 CAO         -6.7620     2.0010    -0.3660 ca         1 QV7      -0.122000
     15 CAP         -7.0620    -0.3100     0.2560 ca         1 QV7      -0.122000
     16 CAQ         -0.7260     0.3900    -0.2370 ca         1 QV7      -0.161000
     17 CAR         -8.1320     2.1890    -0.3510 ca         1 QV7      -0.041000
     18 CAS         -8.4320    -0.1200     0.2720 ca         1 QV7      -0.041000
     19 CAT          4.3150     3.3050     0.2610 ca         1 QV7      -0.016000
     20 CAU          3.5170     2.1940     0.1870 ca         1 QV7      -0.157000
     21 CAV         -2.3860    -1.7570     0.3130 ca         1 QV7       0.019000
     22 CAW          6.2900     1.9630     0.0050 ca         1 QV7       0.015000
     23 CAX          6.0720    -0.4690    -0.2550 ca         1 QV7       0.059000
     24 NAZ         -4.3320    -0.4350     0.1190 ne         1 QV7      -0.180400
     25 NBA          1.2050    -1.1110    -0.0240 ne         1 QV7      -0.312400
     26 NBB          1.9310    -0.0940     0.0200 nf         1 QV7      -0.151400
     27 CBC         -6.2180     0.7530    -0.0680 ca         1 QV7       0.112400
     28 CBD         -2.9320    -0.5010     0.0670 ca         1 QV7       0.011400
     29 CBE          3.9050    -1.5290    -0.2360 ca         1 QV7       0.329100
     30 CBF         -0.1720    -0.8700     0.0170 ca         1 QV7       0.246400
     31 CBG         -8.9700     1.1270    -0.0330 ca         1 QV7      -0.230500
     32 CBH          5.7150     3.1940     0.1720 ca         1 QV7      -0.276500
     33 CBI         -1.0170    -1.9530     0.2830 ca         1 QV7      -0.221500
     34 CBJ          5.3210    -1.6030    -0.3360 ca         1 QV7      -0.302500
     35 CBK          3.2900    -0.2780    -0.0670 ca         1 QV7      -0.117600
     36 CBL          5.4860     0.8080    -0.0790 ca         1 QV7      -0.146000
     37 CBM          4.0820     0.9120     0.0140 ca         1 QV7       0.095000
     38 SBN        -10.7440     1.3790    -0.0760 s6         1 QV7       1.275100
     39 SBP         -0.3540    -3.5900     0.6420 s6         1 QV7       1.268100
     40 HOAI         2.2580    -2.4550    -0.2310 ho         1 QV7       0.546000
     41 HAN         -2.5030     1.5550    -0.4170 ha         1 QV7       0.110000
     42 HAO         -6.0970     2.8200    -0.6100 ha         1 QV7       0.114500
     43 HAP         -6.6480    -1.2790     0.4980 ha         1 QV7       0.114500
     44 HAQ         -0.0740     1.2210    -0.4650 ha         1 QV7       0.121000
     45 HAR         -8.5390     3.1660    -0.5810 ha         1 QV7       0.117500
     46 HAS         -9.0820    -0.9460     0.5260 ha         1 QV7       0.117500
     47 HAT          3.8570     4.2750     0.4050 ha         1 QV7       0.106000
     48 HAU          2.4450     2.3020     0.2650 ha         1 QV7       0.110000
     49 HAV         -3.0540    -2.5810     0.5260 ha         1 QV7       0.143000
     50 HAW          7.3650     1.8560    -0.0580 ha         1 QV7       0.121000
     51 HAX          7.1500    -0.5370    -0.3260 ha         1 QV7       0.131000
     52 SBO          6.7170     4.6760     0.2100 s6         1 QV7       1.281100
     53 OAI          3.2270    -2.6500    -0.3150 oh         1 QV7      -0.468100
     54 NAY         -4.8160     0.6800    -0.1200 nf         1 QV7      -0.250400
     55 SBQ          6.1210    -3.1970    -0.5590 s6         1 QV7       1.285100
@<TRIPOS>BOND
     1     1    38 1   
     2     2    38 1   
     3     3    52 1   
     4     4    52 1   
     5     5    39 1   
     6     6    39 1   
     7     7    55 1   
     8     8    55 1   
     9     9    38 1   
    10    10    52 1   
    11    11    39 1   
    12    12    55 1   
    13    13    16 ar  
    14    13    28 ar  
    15    13    41 1   
    16    14    17 ar  
    17    14    27 ar  
    18    14    42 1   
    19    15    18 ar  
    20    15    27 ar  
    21    15    43 1   
    22    16    30 ar  
    23    16    44 1   
    24    17    31 ar  
    25    17    45 1   
    26    18    31 ar  
    27    18    46 1   
    28    19    20 ar  
    29    19    32 ar  
    30    19    47 1   
    31    20    37 ar  
    32    20    48 1   
    33    21    28 ar  
    34    21    33 ar  
    35    21    49 1   
    36    22    32 ar  
    37    22    36 ar  
    38    22    50 1   
    39    23    34 ar  
    40    23    36 ar  
    41    23    51 1   
    42    24    28 1   
    43    24    54 2   
    44    25    26 2   
    45    25    30 1   
    46    26    35 1   
    47    27    54 1   
    48    29    34 ar  
    49    29    35 ar  
    50    29    53 1   
    51    30    33 ar  
    52    31    38 1   
    53    32    52 1   
    54    33    39 1   
    55    34    55 1   
    56    35    37 ar  
    57    36    37 ar  
    58    40    53 1   
@<TRIPOS>SUBSTRUCTURE
     1 QV7         1 TEMP              0 ****  ****    0 ROOT
