@<TRIPOS>MOLECULE
QV8
   39    42     1     0     0
SMALL
No Charge or Current Charge


@<TRIPOS>ATOM
      1 OAA         -0.0200    -4.0030    -0.0380 o          1 QV8      -0.521100
      2 OAB          2.9960     0.3890     0.9020 o          1 QV8      -0.594100
      3 OAC         -4.3010    -1.3920     0.1450 o          1 QV8      -0.684200
      4 OAD         -3.8730    -0.1290    -1.9560 o          1 QV8      -0.684200
      5 OAE         -4.1640     1.1030     0.1890 o          1 QV8      -0.684200
      6 CAF          0.4080     6.0140    -0.9460 ca         1 QV8      -0.138000
      7 CAG         -0.2270     4.9820    -1.6580 ca         1 QV8      -0.091000
      8 CAH          1.2050     5.7080     0.1690 ca         1 QV8      -0.091000
      9 CAI          4.1910    -4.4690     0.2660 ca         1 QV8      -0.111000
     10 CAJ          4.9670    -3.3240     0.4850 ca         1 QV8      -0.114000
     11 CAK         -0.0720     3.6460    -1.2470 ca         1 QV8      -0.136000
     12 CAL          1.3580     4.3710     0.5760 ca         1 QV8      -0.136000
     13 CAM          2.7990    -4.3550     0.1320 ca         1 QV8      -0.075000
     14 CAN          4.3510    -2.0660     0.5700 ca         1 QV8      -0.076000
     15 CAO         -1.2080     0.8970    -0.0350 ca         1 QV8      -0.092000
     16 CAP         -1.3440    -1.5130    -0.1750 ca         1 QV8      -0.015000
     17 NAQ          0.9020     2.0180     0.3080 nu         1 QV8      -0.841000
     18 CAR          0.7090     3.3350    -0.1170 ca         1 QV8       0.309000
     19 CAS         -1.9840    -0.2640    -0.2020 ca         1 QV8      -0.161500
     20 CAT          0.1820     0.8280     0.1650 ca         1 QV8       0.370000
     21 CAU          0.6700    -2.9940     0.0680 c          1 QV8       0.587300
     22 CAV          2.3110    -0.5650     0.5440 c          1 QV8       0.609300
     23 CAW          2.1660    -3.0920     0.2130 ca         1 QV8      -0.121600
     24 CAX          2.9480    -1.9330     0.4340 ca         1 QV8      -0.118600
     25 CAY          0.0470    -1.6160     0.0510 ca         1 QV8      -0.130600
     26 CAZ          0.8250    -0.4370     0.2500 ca         1 QV8      -0.235600
     27 HAF          0.2890     7.0470    -1.2640 ha         1 QV8       0.104000
     28 HAG         -0.8330     5.2170    -2.5310 ha         1 QV8       0.107500
     29 HAH          1.7040     6.5050     0.7170 ha         1 QV8       0.107500
     30 HAI          4.6660    -5.4460     0.2010 ha         1 QV8       0.109000
     31 HAJ          6.0460    -3.4100     0.5900 ha         1 QV8       0.107000
     32 HAK         -0.5440     2.8570    -1.8230 ha         1 QV8       0.124000
     33 HAL          1.9770     4.1390     1.4380 ha         1 QV8       0.124000
     34 HAM          2.2120    -5.2560    -0.0370 ha         1 QV8       0.134000
     35 HAN          4.9730    -1.1890     0.7420 ha         1 QV8       0.132000
     36 HAO         -1.6970     1.8650    -0.0470 ha         1 QV8       0.151000
     37 HAP         -1.9390    -2.4130    -0.3280 ha         1 QV8       0.154000
     38 HNAQ         1.8110     1.8610     0.7450 hn         1 QV8       0.367000
     39 SBA         -3.8150    -0.1560    -0.4870 s6         1 QV8       1.256100
@<TRIPOS>BOND
     1     1    21 2   
     2     2    22 2   
     3     3    39 1   
     4     4    39 1   
     5     5    39 1   
     6     6     7 ar  
     7     6     8 ar  
     8     6    27 1   
     9     7    11 ar  
    10     7    28 1   
    11     8    12 ar  
    12     8    29 1   
    13     9    10 ar  
    14     9    13 ar  
    15     9    30 1   
    16    10    14 ar  
    17    10    31 1   
    18    11    18 ar  
    19    11    32 1   
    20    12    18 ar  
    21    12    33 1   
    22    13    23 ar  
    23    13    34 1   
    24    14    24 ar  
    25    14    35 1   
    26    15    19 ar  
    27    15    20 ar  
    28    15    36 1   
    29    16    19 ar  
    30    16    25 ar  
    31    16    37 1   
    32    17    18 1   
    33    17    20 1   
    34    17    38 1   
    35    19    39 1   
    36    20    26 ar  
    37    21    23 1   
    38    21    25 1   
    39    22    24 1   
    40    22    26 1   
    41    23    24 ar  
    42    25    26 ar  
@<TRIPOS>SUBSTRUCTURE
     1 QV8         1 TEMP              0 ****  ****    0 ROOT
