@<TRIPOS>MOLECULE
QV8
   39    42     1     0     0
SMALL
abcg2


@<TRIPOS>ATOM
      1 OAA         -0.0510    -3.9130    -0.0070 o          1 QV8      -0.521100
      2 OAB          3.1670     0.3470     0.4140 o          1 QV8      -0.594100
      3 OAC         -4.1350    -0.9760     0.5440 o          1 QV8      -0.684200
      4 OAD         -3.8150    -0.3960    -1.8250 o          1 QV8      -0.684200
      5 OAE         -3.9000     1.3840    -0.1240 o          1 QV8      -0.684200
      6 CAF          0.0880     5.9710    -0.7100 ca         1 QV8      -0.138000
      7 CAG         -0.3500     4.9730    -1.5700 ca         1 QV8      -0.091000
      8 CAH          0.8690     5.6310     0.3870 ca         1 QV8      -0.091000
      9 CAI          4.0520    -4.5360     0.4610 ca         1 QV8      -0.111000
     10 CAJ          4.8750    -3.4190     0.5480 ca         1 QV8      -0.114000
     11 CAK         -0.0150     3.6470    -1.3420 ca         1 QV8      -0.136000
     12 CAL          1.1920     4.3060     0.6340 ca         1 QV8      -0.136000
     13 CAM          2.6860    -4.3770     0.3060 ca         1 QV8      -0.075000
     14 CAN          4.3330    -2.1460     0.4860 ca         1 QV8      -0.076000
     15 CAO         -1.0160     0.9570    -0.1640 ca         1 QV8      -0.092000
     16 CAP         -1.2360    -1.4410    -0.1670 ca         1 QV8      -0.015000
     17 NAQ          1.1470     1.9830     0.0260 nu         1 QV8      -0.841000
     18 CAR          0.7480     3.3030    -0.2260 ca         1 QV8       0.309000
     19 CAS         -1.7970    -0.1660    -0.2290 ca         1 QV8      -0.161500
     20 CAT          0.3870     0.8630    -0.0340 ca         1 QV8       0.370000
     21 CAU          0.6770    -2.9440     0.0710 c          1 QV8       0.587300
     22 CAV          2.4030    -0.6030     0.2770 c          1 QV8       0.609300
     23 CAW          2.1350    -3.1000     0.2390 ca         1 QV8      -0.121600
     24 CAX          2.9590    -1.9780     0.3310 ca         1 QV8      -0.118600
     25 CAY          0.1260    -1.5640    -0.0090 ca         1 QV8      -0.130600
     26 CAZ          0.9660    -0.4310     0.0710 ca         1 QV8      -0.235600
     27 HAF         -0.1710     7.0050    -0.8970 ha         1 QV8       0.104000
     28 HAG         -0.9440     5.2260    -2.4390 ha         1 QV8       0.107500
     29 HAH          1.2200     6.4000     1.0630 ha         1 QV8       0.107500
     30 HAI          4.4780    -5.5290     0.5130 ha         1 QV8       0.109000
     31 HAJ          5.9440    -3.5420     0.6640 ha         1 QV8       0.107000
     32 HAK         -0.3320     2.8840    -2.0410 ha         1 QV8       0.124000
     33 HAL          1.7880     4.0430     1.5000 ha         1 QV8       0.124000
     34 HAM          2.0440    -5.2450     0.2370 ha         1 QV8       0.134000
     35 HAN          4.9790    -1.2830     0.5560 ha         1 QV8       0.132000
     36 HAO         -1.4850     1.9300    -0.1840 ha         1 QV8       0.151000
     37 HAP         -1.8580    -2.3230    -0.2180 ha         1 QV8       0.154000
     38 HNAQ         2.1130     1.8330     0.2900 hn         1 QV8       0.367000
     39 SBA         -3.5780    -0.0190    -0.4230 s6         1 QV8       1.256100
@<TRIPOS>BOND
     1     1    21 2   
     2     2    22 2   
     3     3    39 1   
     4     4    39 1   
     5     5    39 1   
     6     6     7 ar  
     7     6     8 ar  
     8     6    27 1   
     9     7    11 ar  
    10     7    28 1   
    11     8    12 ar  
    12     8    29 1   
    13     9    10 ar  
    14     9    13 ar  
    15     9    30 1   
    16    10    14 ar  
    17    10    31 1   
    18    11    18 ar  
    19    11    32 1   
    20    12    18 ar  
    21    12    33 1   
    22    13    23 ar  
    23    13    34 1   
    24    14    24 ar  
    25    14    35 1   
    26    15    19 ar  
    27    15    20 ar  
    28    15    36 1   
    29    16    19 ar  
    30    16    25 ar  
    31    16    37 1   
    32    17    18 1   
    33    17    20 1   
    34    17    38 1   
    35    19    39 1   
    36    20    26 ar  
    37    21    23 1   
    38    21    25 1   
    39    22    24 1   
    40    22    26 1   
    41    23    24 ar  
    42    25    26 ar  
@<TRIPOS>SUBSTRUCTURE
     1 QV8         1 TEMP              0 ****  ****    0 ROOT
