@<TRIPOS>MOLECULE
QV9
   38    41     1     0     0
SMALL
No Charge or Current Charge


@<TRIPOS>ATOM
      1 N1         -16.3090     4.9060    25.3990 nb         1 QV9      -0.654000
      2 C4         -21.9300     4.1240    29.4210 ca         1 QV9      -0.055300
      3 C5         -22.7840     3.1250    29.9290 ca         1 QV9      -0.090000
      4 C6         -21.4380     4.0410    27.9740 c5         1 QV9      -0.103400
      5 C7         -22.1120     5.1940    27.1710 c5         1 QV9      -0.086400
      6 C8         -21.1620     5.2880    25.9410 c5         1 QV9       0.104000
      7 C10        -18.6040     5.4860    26.0130 ca         1 QV9      -0.078000
      8 C13        -17.0040     7.2280    25.4560 ca         1 QV9      -0.096000
      9 C15        -17.5750     9.5900    25.6190 ca         1 QV9      -0.110000
     10 C17        -19.1990     7.8950    26.2680 ca         1 QV9      -0.099000
     11 C9         -19.9370     4.3000    27.7710 c          1 QV9       0.564000
     12 C3         -21.5460     5.1870    30.2680 ca         1 QV9      -0.093000
     13 C2         -22.0090     5.2480    31.5950 ca         1 QV9      -0.100000
     14 C1         -22.8600     4.2460    32.0890 ca         1 QV9      -0.096000
     15 C          -23.2460     3.1860    31.2540 ca         1 QV9       0.125000
     16 Cl         -24.3130     1.9300    31.8700 cl         1 QV9      -0.212000
     17 N          -19.8480     5.0020    26.5600 n          1 QV9      -0.256400
     18 C18        -18.2940     6.8690    25.9110 ca         1 QV9      -0.006000
     19 C16        -18.8420     9.2460    26.1160 ca         1 QV9      -0.091000
     20 C14        -16.6530     8.5830    25.2960 ca         1 QV9      -0.080000
     21 C12        -16.0610     6.2170    25.1920 ca         1 QV9       0.363900
     22 C11        -17.5440     4.5660    25.8330 ca         1 QV9       0.333900
     23 H1         -23.0940     2.2980    29.2960 ha         1 QV9       0.128000
     24 H2         -21.6730     3.0900    27.4800 hc         1 QV9       0.081700
     25 H3         -22.1120     6.1400    27.7240 hc         1 QV9       0.062700
     26 H4         -23.1490     4.9760    26.8910 hc         1 QV9       0.062700
     27 H5         -21.2120     6.2610    25.4370 h1         1 QV9       0.053700
     28 H6         -21.4010     4.5150    25.1980 h1         1 QV9       0.053700
     29 H7         -17.3020    10.6370    25.5030 ha         1 QV9       0.118000
     30 H8         -20.1750     7.6680    26.6840 ha         1 QV9       0.122000
     31 H9         -20.8870     5.9700    29.9010 ha         1 QV9       0.118000
     32 H10        -21.7060     6.0720    32.2380 ha         1 QV9       0.120000
     33 H11        -23.2190     4.2910    33.1140 ha         1 QV9       0.131000
     34 H12        -19.5470    10.0270    26.3890 ha         1 QV9       0.115000
     35 H13        -15.6620     8.8560    24.9370 ha         1 QV9       0.119000
     36 H14        -15.0590     6.4670    24.8450 h4         1 QV9       0.022100
     37 H15        -17.7090     3.5010    25.9970 h4         1 QV9       0.027100
     38 O          -19.0040     4.0920    28.5360 o          1 QV9      -0.518000
@<TRIPOS>BOND
     1     1    21 ar  
     2     1    22 ar  
     3     2     3 ar  
     4     2     4 1   
     5     2    12 ar  
     6     3    15 ar  
     7     3    23 1   
     8     4     5 1   
     9     4    11 1   
    10     4    24 1   
    11     5     6 1   
    12     5    25 1   
    13     5    26 1   
    14     6    17 1   
    15     6    27 1   
    16     6    28 1   
    17     7    17 1   
    18     7    18 ar  
    19     7    22 ar  
    20     8    18 ar  
    21     8    20 ar  
    22     8    21 ar  
    23     9    19 ar  
    24     9    20 ar  
    25     9    29 1   
    26    10    18 ar  
    27    10    19 ar  
    28    10    30 1   
    29    11    17 1   
    30    11    38 2   
    31    12    13 ar  
    32    12    31 1   
    33    13    14 ar  
    34    13    32 1   
    35    14    15 ar  
    36    14    33 1   
    37    15    16 1   
    38    19    34 1   
    39    20    35 1   
    40    21    36 1   
    41    22    37 1   
@<TRIPOS>SUBSTRUCTURE
     1 QV9         1 TEMP              0 ****  ****    0 ROOT
