@<TRIPOS>MOLECULE
QV9
   38    41     1     0     0
SMALL
abcg2


@<TRIPOS>ATOM
      1 N1         -16.6100     4.8570    24.9570 nb         1 QV9      -0.654000
      2 C4         -21.9590     4.1970    29.4240 ca         1 QV9      -0.055300
      3 C5         -22.4970     3.0760    30.0500 ca         1 QV9      -0.090000
      4 C6         -21.4570     4.1000    28.0110 c5         1 QV9      -0.103400
      5 C7         -22.1850     4.9770    26.9780 c5         1 QV9      -0.086400
      6 C8         -21.1310     5.2180    25.8950 c5         1 QV9       0.104000
      7 C10        -18.6320     5.5190    26.0750 ca         1 QV9      -0.078000
      8 C13        -17.0040     7.1880    25.4290 ca         1 QV9      -0.096000
      9 C15        -17.3340     9.5320    25.9000 ca         1 QV9      -0.110000
     10 C17        -19.0180     7.9340    26.6000 ca         1 QV9      -0.099000
     11 C9         -19.9880     4.5030    27.8410 c          1 QV9       0.564000
     12 C3         -21.9000     5.4030    30.1260 ca         1 QV9      -0.093000
     13 C2         -22.3760     5.4860    31.4270 ca         1 QV9      -0.100000
     14 C1         -22.9200     4.3700    32.0560 ca         1 QV9      -0.096000
     15 C          -22.9710     3.1760    31.3520 ca         1 QV9       0.125000
     16 CL         -23.6520     1.7540    32.1200 cl         1 QV9      -0.212000
     17 N          -19.8730     5.1400    26.6470 n          1 QV9      -0.256400
     18 C18        -18.2480     6.8840    26.0480 ca         1 QV9      -0.006000
     19 C16        -18.5650     9.2270    26.5230 ca         1 QV9      -0.091000
     20 C14        -16.5650     8.5310    25.3640 ca         1 QV9      -0.080000
     21 C12        -16.2400     6.1170    24.9070 ca         1 QV9       0.363900
     22 C11        -17.8030     4.5700    25.5350 ca         1 QV9       0.333900
     23 H1         -22.5490     2.1310    29.5260 ha         1 QV9       0.128000
     24 H2         -21.5030     3.0530    27.6930 hc         1 QV9       0.081700
     25 H3         -22.4650     5.9260    27.4360 hc         1 QV9       0.062700
     26 H4         -23.0830     4.5030    26.5860 hc         1 QV9       0.062700
     27 H5         -21.2270     6.1910    25.4160 h1         1 QV9       0.053700
     28 H6         -21.1470     4.4440    25.1220 h1         1 QV9       0.053700
     29 H7         -17.0010    10.5600    25.8520 ha         1 QV9       0.118000
     30 H8         -19.9570     7.7070    27.0840 ha         1 QV9       0.122000
     31 H9         -21.4780     6.2810    29.6530 ha         1 QV9       0.118000
     32 H10        -22.3240     6.4250    31.9640 ha         1 QV9       0.120000
     33 H11        -23.2940     4.4260    33.0690 ha         1 QV9       0.131000
     34 H12        -19.1560    10.0280    26.9480 ha         1 QV9       0.115000
     35 H13        -15.6170     8.7500    24.8890 ha         1 QV9       0.119000
     36 H14        -15.2860     6.3370    24.4350 h4         1 QV9       0.022100
     37 H15        -18.0940     3.5260    25.5590 h4         1 QV9       0.027100
     38 O          -19.0740     4.2720    28.6200 o          1 QV9      -0.518000
@<TRIPOS>BOND
     1     1    21 ar  
     2     1    22 ar  
     3     2     3 ar  
     4     2     4 1   
     5     2    12 ar  
     6     3    15 ar  
     7     3    23 1   
     8     4     5 1   
     9     4    11 1   
    10     4    24 1   
    11     5     6 1   
    12     5    25 1   
    13     5    26 1   
    14     6    17 1   
    15     6    27 1   
    16     6    28 1   
    17     7    17 1   
    18     7    18 ar  
    19     7    22 ar  
    20     8    18 ar  
    21     8    20 ar  
    22     8    21 ar  
    23     9    19 ar  
    24     9    20 ar  
    25     9    29 1   
    26    10    18 ar  
    27    10    19 ar  
    28    10    30 1   
    29    11    17 1   
    30    11    38 2   
    31    12    13 ar  
    32    12    31 1   
    33    13    14 ar  
    34    13    32 1   
    35    14    15 ar  
    36    14    33 1   
    37    15    16 1   
    38    19    34 1   
    39    20    35 1   
    40    21    36 1   
    41    22    37 1   
@<TRIPOS>SUBSTRUCTURE
     1 QV9         1 TEMP              0 ****  ****    0 ROOT
