@<TRIPOS>MOLECULE
QVA
   24    23     1     0     0
SMALL
bcc


@<TRIPOS>ATOM
      1 N           46.7660     4.4810    -1.0720 n8         1 QVA      -0.881800
      2 CA          46.1940     5.7670    -1.4900 c3         1 QVA       0.013500
      3 C           45.7980     5.6650    -2.9850 c          1 QVA       0.954600
      4 O           46.7270     5.6570    -3.8160 o          1 QVA      -0.849300
      5 CB          47.2410     6.8420    -1.2440 c3         1 QVA       0.023700
      6 SG          46.7480     8.5290    -1.7000 ss         1 QVA      -0.281200
      7 C02         44.0890     8.4890    -0.7260 c          1 QVA       0.957600
      8 C04         45.5410     8.8960    -0.3810 c3         1 QVA      -0.098600
      9 C05         45.6220    10.3760     0.0410 c3         1 QVA       0.036100
     10 C07         45.2800    11.3670    -1.0960 c          1 QVA       0.964600
     11 O01         43.4860     7.8370     0.1520 o          1 QVA      -0.839800
     12 O03         43.6380     8.8600    -1.8240 o          1 QVA      -0.839800
     13 O06         44.7700    10.6060     1.1430 oh         1 QVA      -0.585800
     14 O08         46.1010    11.3740    -2.0360 o          1 QVA      -0.847300
     15 O09         44.2700    12.0790    -0.9730 o          1 QVA      -0.847300
     16 H           46.9230     4.5050    -0.0710 hn         1 QVA       0.284300
     17 H2          46.0800     3.7480    -1.2140 hn         1 QVA       0.284300
     18 HA          45.2960     6.0200    -0.9120 h1         1 QVA       0.062700
     19 HB2         48.1280     6.6240    -1.8400 h1         1 QVA       0.015700
     20 HB3         47.5480     6.8400    -0.1930 h1         1 QVA       0.015700
     21 H8          45.8790     8.3070     0.4800 h1         1 QVA      -0.005300
     22 H9          46.6700    10.5650     0.3240 h1         1 QVA      -0.033300
     23 H11         44.9400     9.9170     1.7940 ho         1 QVA       0.346000
     24 OXT         44.5780     5.5610    -3.2280 o          1 QVA      -0.849300
@<TRIPOS>BOND
     1     1     2 1   
     2     1    16 1   
     3     1    17 1   
     4     2     3 1   
     5     2     5 1   
     6     2    18 1   
     7     3     4 1   
     8     3    24 1   
     9     5     6 1   
    10     5    19 1   
    11     5    20 1   
    12     6     8 1   
    13     7     8 1   
    14     7    11 1   
    15     7    12 1   
    16     8     9 1   
    17     8    21 1   
    18     9    10 1   
    19     9    13 1   
    20     9    22 1   
    21    10    14 1   
    22    10    15 1   
    23    13    23 1   
@<TRIPOS>SUBSTRUCTURE
     1 QVA         1 TEMP              0 ****  ****    0 ROOT
