@<TRIPOS>MOLECULE
QVA
   24    23     1     0     0
SMALL
No Charge or Current Charge


@<TRIPOS>ATOM
      1 N           45.9620     4.0140    -1.6080 n8         1 QVA      -0.881800
      2 CA          46.1020     5.4190    -2.1670 c3         1 QVA       0.013500
      3 C           47.3610     5.7130    -3.0950 c          1 QVA       0.954600
      4 O           48.4840     5.7560    -2.5970 o          1 QVA      -0.849300
      5 CB          45.9900     6.4580    -1.0230 c3         1 QVA       0.023700
      6 SG          45.7660     8.1690    -1.6860 ss         1 QVA      -0.281200
      7 C02         44.5080     8.7780     0.8330 c          1 QVA       0.957600
      8 C04         45.7170     9.1400    -0.0890 c3         1 QVA      -0.098600
      9 C05         45.7990    10.6650    -0.3780 c3         1 QVA       0.036100
     10 C07         44.4100    11.2850    -0.8540 c          1 QVA       0.964600
     11 O01         44.7360     8.5190     2.0110 o          1 QVA      -0.839800
     12 O03         43.4030     8.5990     0.3320 o          1 QVA      -0.839800
     13 O06         46.3950    11.3310     0.7700 oh         1 QVA      -0.585800
     14 O08         44.2250    11.4530    -2.0570 o          1 QVA      -0.847300
     15 O09         43.6560    11.7820    -0.0180 o          1 QVA      -0.847300
     16 H           45.0730     3.9360    -1.1050 hn         1 QVA       0.284300
     17 H2          45.8910     3.3460    -2.3820 hn         1 QVA       0.284300
     18 HA          45.2270     5.5750    -2.8120 h1         1 QVA       0.062700
     19 HB2         46.8900     6.4310    -0.3960 h1         1 QVA       0.015700
     20 HB3         45.1230     6.2210    -0.3930 h1         1 QVA       0.015700
     21 H8          46.6340     8.8540     0.4440 h1         1 QVA      -0.005300
     22 H9          46.5050    10.7880    -1.2110 h1         1 QVA      -0.033300
     23 H11         47.2660    10.9120     0.9260 ho         1 QVA       0.346000
     24 OXT         47.1880     5.7680    -4.3110 o          1 QVA      -0.849300
@<TRIPOS>BOND
     1     1     2 1   
     2     1    16 1   
     3     1    17 1   
     4     2     3 1   
     5     2     5 1   
     6     2    18 1   
     7     3     4 1   
     8     3    24 1   
     9     5     6 1   
    10     5    19 1   
    11     5    20 1   
    12     6     8 1   
    13     7     8 1   
    14     7    11 1   
    15     7    12 1   
    16     8     9 1   
    17     8    21 1   
    18     9    10 1   
    19     9    13 1   
    20     9    22 1   
    21    10    14 1   
    22    10    15 1   
    23    13    23 1   
@<TRIPOS>SUBSTRUCTURE
     1 QVA         1 TEMP              0 ****  ****    0 ROOT
