@<TRIPOS>MOLECULE
QVB
   40    42     1     0     0
SMALL
abcg2


@<TRIPOS>ATOM
      1 C10         15.2000    31.4410    15.6600 ca         1 QVB      -0.088800
      2 C15         19.9400    31.4580    14.1450 ca         1 QVB      -0.169000
      3 C20         17.6820    33.1540    14.5180 ca         1 QVB      -0.016000
      4 C21         17.5960    31.7880    14.8040 ca         1 QVB      -0.117800
      5 C22         16.5070    28.3990    15.8430 c          1 QVB       0.640300
      6 C01         15.3850    31.8470    20.0550 c3         1 QVB      -0.108100
      7 C02         15.1910    30.5880    19.2260 c3         1 QVB       0.178300
      8 C03         16.0440    29.4400    19.7280 c3         1 QVB      -0.108100
      9 O04         15.5790    30.8120    17.8680 os         1 QVB      -0.345100
     10 C05         14.7390    31.3740    16.9880 ca         1 QVB       0.167100
     11 C06         13.4740    31.8710    17.3000 ca         1 QVB      -0.210000
     12 C07         12.6810    32.4340    16.3090 ca         1 QVB      -0.064000
     13 C08         13.1290    32.5160    15.0010 ca         1 QVB      -0.156000
     14 C09         14.3870    32.0190    14.6900 ca         1 QVB      -0.063000
     15 C11         16.5420    30.9600    15.3030 cc         1 QVB      -0.020400
     16 C12         17.0690    29.6940    15.3980 cd         1 QVB      -0.115300
     17 N13         18.3780    29.7100    14.9950 na         1 QVB      -0.180700
     18 C14         18.7250    30.9630    14.6230 ca         1 QVB      -0.015200
     19 C16         19.9830    32.7990    13.8680 ca         1 QVB       0.203000
     20 F17         21.1170    33.3370    13.4090 f          1 QVB      -0.163000
     21 C18         18.8770    33.6470    14.0500 ca         1 QVB       0.036000
     22 CL1         19.0560    35.3230    13.6730 cl         1 QVB      -0.180000
     23 N23         15.1750    28.3020    15.8750 nt         1 QVB      -0.587000
     24 O24         17.2620    27.4770    16.1320 o          1 QVB      -0.627100
     25 H1          20.8080    30.8290    13.9990 ha         1 QVB       0.140000
     26 H2          16.8350    33.8120    14.6570 ha         1 QVB       0.138000
     27 H3          15.0830    31.6610    21.0860 hc         1 QVB       0.048867
     28 H4          16.4350    32.1470    20.0610 hc         1 QVB       0.048867
     29 H5          14.7950    32.6870    19.6870 hc         1 QVB       0.048867
     30 H6          14.1400    30.2790    19.2590 h1         1 QVB       0.038700
     31 H7          15.7860    29.2160    20.7630 hc         1 QVB       0.048867
     32 H8          15.8800    28.5400    19.1360 hc         1 QVB       0.048867
     33 H9          17.1050    29.6910    19.6920 hc         1 QVB       0.048867
     34 H10         13.0940    31.8340    18.3110 ha         1 QVB       0.120000
     35 H11         11.7030    32.8140    16.5750 ha         1 QVB       0.113000
     36 H12         12.5110    32.9560    14.2310 ha         1 QVB       0.120000
     37 H13         14.7470    32.0650    13.6690 ha         1 QVB       0.122000
     38 H14         18.9730    28.8960    14.9680 hn         1 QVB       0.376000
     39 H15         14.7430    27.4530    16.2010 hn         1 QVB       0.323500
     40 H16         14.5670    29.0510    15.5890 hn         1 QVB       0.323500
@<TRIPOS>BOND
     1     1    10 ar  
     2     1    14 ar  
     3     1    15 1   
     4     2    18 ar  
     5     2    19 ar  
     6     2    25 1   
     7     3     4 ar  
     8     3    21 ar  
     9     3    26 1   
    10     4    15 1   
    11     4    18 ar  
    12     5    16 1   
    13     5    23 1   
    14     5    24 2   
    15     6     7 1   
    16     6    27 1   
    17     6    28 1   
    18     6    29 1   
    19     7     8 1   
    20     7     9 1   
    21     7    30 1   
    22     8    31 1   
    23     8    32 1   
    24     8    33 1   
    25     9    10 1   
    26    10    11 ar  
    27    11    12 ar  
    28    11    34 1   
    29    12    13 ar  
    30    12    35 1   
    31    13    14 ar  
    32    13    36 1   
    33    14    37 1   
    34    15    16 2   
    35    16    17 1   
    36    17    18 1   
    37    17    38 1   
    38    19    20 1   
    39    19    21 ar  
    40    21    22 1   
    41    23    39 1   
    42    23    40 1   
@<TRIPOS>SUBSTRUCTURE
     1 QVB         1 TEMP              0 ****  ****    0 ROOT
