@<TRIPOS>MOLECULE
QVB
   40    42     1     0     0
SMALL
No Charge or Current Charge


@<TRIPOS>ATOM
      1 C10         15.0210    31.0140    15.5840 ca         1 QVB      -0.088800
      2 C15         19.8700    31.2790    14.6810 ca         1 QVB      -0.169000
      3 C20         17.7000    32.7750    15.7460 ca         1 QVB      -0.016000
      4 C21         17.5360    31.4780    15.2400 ca         1 QVB      -0.117800
      5 C22         15.9080    28.2150    14.3670 c          1 QVB       0.640300
      6 C01         15.8240    32.8300    19.3050 c3         1 QVB      -0.108100
      7 C02         15.6770    31.2930    19.2500 c3         1 QVB       0.178300
      8 C03         16.8370    30.5740    19.9630 c3         1 QVB      -0.108100
      9 O04         15.7240    30.8780    17.8730 os         1 QVB      -0.345100
     10 C05         14.7200    31.1420    16.9580 ca         1 QVB       0.167100
     11 C06         13.4140    31.5040    17.3540 ca         1 QVB      -0.210000
     12 C07         12.4250    31.7550    16.3880 ca         1 QVB      -0.064000
     13 C08         12.7350    31.6490    15.0230 ca         1 QVB      -0.156000
     14 C09         14.0300    31.2850    14.6210 ca         1 QVB      -0.063000
     15 C11         16.3700    30.6580    15.1510 cc         1 QVB      -0.020400
     16 C12         16.7520    29.4270    14.6020 cd         1 QVB      -0.115300
     17 N13         18.1430    29.5030    14.3100 na         1 QVB      -0.180700
     18 C14         18.5720    30.7540    14.7270 ca         1 QVB      -0.015200
     19 C16         20.0750    32.5820    15.1820 ca         1 QVB       0.203000
     20 F17         21.3200    33.1120    15.1510 f          1 QVB      -0.163000
     21 C18         18.9950    33.3310    15.7150 ca         1 QVB       0.036000
     22 Cl1         19.2500    34.9580    16.3480 cl         1 QVB      -0.180000
     23 N23         14.6180    28.2550    14.7550 nt         1 QVB      -0.587000
     24 O24         16.3440    27.1950    13.8560 o          1 QVB      -0.627100
     25 H1          20.6990    30.7040    14.2760 ha         1 QVB       0.140000
     26 H2          16.8590    33.3300    16.1520 ha         1 QVB       0.138000
     27 H3          15.8550    33.1730    20.3460 hc         1 QVB       0.048867
     28 H4          16.7500    33.1500    18.8120 hc         1 QVB       0.048867
     29 H5          14.9810    33.3280    18.8140 hc         1 QVB       0.048867
     30 H6          14.7390    30.9850    19.7300 h1         1 QVB       0.038700
     31 H7          16.8680    30.8520    21.0230 hc         1 QVB       0.048867
     32 H8          16.7110    29.4870    19.8990 hc         1 QVB       0.048867
     33 H9          17.7990    30.8390    19.5080 hc         1 QVB       0.048867
     34 H10         13.1460    31.5900    18.4020 ha         1 QVB       0.120000
     35 H11         11.4200    32.0350    16.6970 ha         1 QVB       0.113000
     36 H12         11.9710    31.8510    14.2750 ha         1 QVB       0.120000
     37 H13         14.2670    31.2120    13.5620 ha         1 QVB       0.122000
     38 H14         18.7120    28.7660    13.9040 hn         1 QVB       0.376000
     39 H15         14.0340    27.4460    14.6110 hn         1 QVB       0.323500
     40 H16         14.2530    29.0890    15.1880 hn         1 QVB       0.323500
@<TRIPOS>BOND
     1     1    10 ar  
     2     1    14 ar  
     3     1    15 1   
     4     2    18 ar  
     5     2    19 ar  
     6     2    25 1   
     7     3     4 ar  
     8     3    21 ar  
     9     3    26 1   
    10     4    15 1   
    11     4    18 ar  
    12     5    16 1   
    13     5    23 1   
    14     5    24 2   
    15     6     7 1   
    16     6    27 1   
    17     6    28 1   
    18     6    29 1   
    19     7     8 1   
    20     7     9 1   
    21     7    30 1   
    22     8    31 1   
    23     8    32 1   
    24     8    33 1   
    25     9    10 1   
    26    10    11 ar  
    27    11    12 ar  
    28    11    34 1   
    29    12    13 ar  
    30    12    35 1   
    31    13    14 ar  
    32    13    36 1   
    33    14    37 1   
    34    15    16 2   
    35    16    17 1   
    36    17    18 1   
    37    17    38 1   
    38    19    20 1   
    39    19    21 ar  
    40    21    22 1   
    41    23    39 1   
    42    23    40 1   
@<TRIPOS>SUBSTRUCTURE
     1 QVB         1 TEMP              0 ****  ****    0 ROOT
