@<TRIPOS>MOLECULE
QVC
   32    35     1     0     0
SMALL
No Charge or Current Charge


@<TRIPOS>ATOM
      1 C17        -46.5950   -29.1880     6.6280 ca         1 QVC       0.365500
      2 C15        -44.5030   -30.1470     6.7230 ca         1 QVC       0.346900
      3 C14        -44.2570   -29.8470     5.3690 ca         1 QVC      -0.153000
      4 C13        -45.2420   -29.1850     4.5890 cp         1 QVC      -0.071500
      5 C12        -46.0470   -29.0070     2.1730 ca         1 QVC      -0.096000
      6 C11        -45.0210   -28.8650     3.1400 cp         1 QVC       0.397500
      7 C20        -47.6110   -28.1460     4.8880 cc         1 QVC      -0.240200
      8 C19        -48.4590   -28.0900     5.9790 cd         1 QVC      -0.142100
      9 C02        -48.6010   -29.1700    -1.2590 cc         1 QVC       0.567300
     10 C05        -46.8570   -28.8490    -0.2040 cd         1 QVC       0.552500
     11 C07        -45.7970   -28.7140     0.8150 ca         1 QVC      -0.122500
     12 C08        -44.4910   -28.2940     0.4830 ca         1 QVC      -0.121000
     13 C09        -43.5170   -28.2000     1.4910 ca         1 QVC       0.334900
     14 C21        -46.4280   -28.8580     5.2940 ca         1 QVC      -0.115800
     15 N03        -47.7770   -28.7840    -2.2180 nd         1 QVC      -0.370300
     16 N06        -48.0980   -29.2320     0.0040 nc         1 QVC      -0.720000
     17 N10        -43.7690   -28.4860     2.7870 nb         1 QVC      -0.646000
     18 N16        -45.6590   -29.8270     7.3540 nb         1 QVC      -0.673000
     19 N18        -47.8300   -28.7470     7.0610 na         1 QVC      -0.335400
     20 O04        -46.5760   -28.5600    -1.5070 os         1 QVC      -0.107700
     21 H151       -43.7510   -30.6610     7.3210 h4         1 QVC       0.023100
     22 H141       -43.3080   -30.1390     4.9280 ha         1 QVC       0.137000
     23 H121       -47.0240   -29.3640     2.4850 ha         1 QVC       0.155000
     24 H201       -47.8180   -27.6920     3.9200 ha         1 QVC       0.211000
     25 H191       -49.4430   -27.6300     6.0680 h4         1 QVC       0.217000
     26 H013       -50.2890   -29.4330    -2.5660 hc         1 QVC       0.066700
     27 H012       -50.2230   -30.5700    -1.2050 hc         1 QVC       0.066700
     28 H011       -50.6990   -28.8810    -0.9300 hc         1 QVC       0.066700
     29 H081       -44.2170   -28.0500    -0.5410 ha         1 QVC       0.143000
     30 H091       -42.5010   -27.8890     1.2520 h4         1 QVC       0.029100
     31 H181       -48.1960   -28.8690     7.9970 hn         1 QVC       0.363000
     32 C01        -50.0320   -29.5340    -1.5050 c3         1 QVC      -0.126400
@<TRIPOS>BOND
     1     1    14 ar  
     2     1    18 ar  
     3     1    19 1   
     4     2     3 ar  
     5     2    18 ar  
     6     2    21 1   
     7     3     4 ar  
     8     3    22 1   
     9     4     6 1   
    10     4    14 ar  
    11     5     6 ar  
    12     5    11 ar  
    13     5    23 1   
    14     6    17 ar  
    15     7     8 2   
    16     7    14 1   
    17     7    24 1   
    18     8    19 1   
    19     8    25 1   
    20     9    15 2   
    21     9    16 1   
    22     9    32 1   
    23    10    11 1   
    24    10    16 2   
    25    10    20 1   
    26    11    12 ar  
    27    12    13 ar  
    28    12    29 1   
    29    13    17 ar  
    30    13    30 1   
    31    15    20 1   
    32    19    31 1   
    33    26    32 1   
    34    27    32 1   
    35    28    32 1   
@<TRIPOS>SUBSTRUCTURE
     1 QVC         1 TEMP              0 ****  ****    0 ROOT
