@<TRIPOS>MOLECULE
QVC
   32    35     1     0     0
SMALL
abcg2


@<TRIPOS>ATOM
      1 C17        -46.5630   -29.1840     6.5940 ca         1 QVC       0.365500
      2 C15        -44.4760   -30.0050     6.6960 ca         1 QVC       0.346900
      3 C14        -44.2590   -29.7210     5.3470 ca         1 QVC      -0.153000
      4 C13        -45.2600   -29.1420     4.5660 cp         1 QVC      -0.071500
      5 C12        -46.0420   -28.9950     2.1920 ca         1 QVC      -0.096000
      6 C11        -45.0200   -28.8720     3.1320 cp         1 QVC       0.397500
      7 C20        -47.7230   -28.2370     4.8600 cc         1 QVC      -0.240200
      8 C19        -48.4940   -28.2300     5.9920 cd         1 QVC      -0.142100
      9 C02        -48.6080   -29.1450    -1.2200 cc         1 QVC       0.567300
     10 C05        -46.8260   -28.8760    -0.1420 cd         1 QVC       0.552500
     11 C07        -45.7640   -28.7480     0.8500 ca         1 QVC      -0.122500
     12 C08        -44.4680   -28.3850     0.4870 ca         1 QVC      -0.121000
     13 C09        -43.5130   -28.2970     1.4900 ca         1 QVC       0.334900
     14 C21        -46.4740   -28.8500     5.2080 ca         1 QVC      -0.115800
     15 N03        -47.7330   -28.8640    -2.1470 nd         1 QVC      -0.370300
     16 N06        -48.0800   -29.1630     0.0510 nc         1 QVC      -0.720000
     17 N10        -43.7700   -28.5320     2.7750 nb         1 QVC      -0.646000
     18 N16        -45.6190   -29.7460     7.3390 nb         1 QVC      -0.673000
     19 N18        -47.8020   -28.8020     7.0340 na         1 QVC      -0.335400
     20 O04        -46.5330   -28.6810    -1.4340 os         1 QVC      -0.107700
     21 H151       -43.6890   -30.4670     7.2810 h4         1 QVC       0.023100
     22 H141       -43.3060   -29.9640     4.9010 ha         1 QVC       0.137000
     23 H121       -47.0320   -29.3050     2.4880 ha         1 QVC       0.155000
     24 H201       -48.0210   -27.8400     3.9050 ha         1 QVC       0.211000
     25 H191       -49.4930   -27.8560     6.1430 h4         1 QVC       0.217000
     26 H013       -50.2260   -29.3430    -2.5840 hc         1 QVC       0.066700
     27 H012       -50.3000   -30.4200    -1.1720 hc         1 QVC       0.066700
     28 H011       -50.6670   -28.7050    -0.9840 hc         1 QVC       0.066700
     29 H081       -44.2050   -28.1790    -0.5400 ha         1 QVC       0.143000
     30 H091       -42.4940   -28.0230     1.2440 h4         1 QVC       0.029100
     31 H181       -48.1410   -28.9130     7.9760 hn         1 QVC       0.363000
     32 C01        -50.0360   -29.4190    -1.5160 c3         1 QVC      -0.126400
@<TRIPOS>BOND
     1     1    14 ar  
     2     1    18 ar  
     3     1    19 1   
     4     2     3 ar  
     5     2    18 ar  
     6     2    21 1   
     7     3     4 ar  
     8     3    22 1   
     9     4     6 1   
    10     4    14 ar  
    11     5     6 ar  
    12     5    11 ar  
    13     5    23 1   
    14     6    17 ar  
    15     7     8 2   
    16     7    14 1   
    17     7    24 1   
    18     8    19 1   
    19     8    25 1   
    20     9    15 2   
    21     9    16 1   
    22     9    32 1   
    23    10    11 1   
    24    10    16 2   
    25    10    20 1   
    26    11    12 ar  
    27    12    13 ar  
    28    12    29 1   
    29    13    17 ar  
    30    13    30 1   
    31    15    20 1   
    32    19    31 1   
    33    26    32 1   
    34    27    32 1   
    35    28    32 1   
@<TRIPOS>SUBSTRUCTURE
     1 QVC         1 TEMP              0 ****  ****    0 ROOT
