@<TRIPOS>MOLECULE
QVE
   27    28     1     0     0
SMALL
abcg2


@<TRIPOS>ATOM
      1 O           -0.6930    -3.8410     0.0040 o          1 QVE      -0.716500
      2 C           -1.6140    -3.0010     0.0190 c          1 QVE       0.612500
      3 C10         -1.1770    -1.5310     0.0320 ca         1 QVE       0.331500
      4 N11         -2.1080    -0.6110     0.0550 nb         1 QVE      -0.709000
      5 C7          -1.7370     0.6870     0.0660 ca         1 QVE       0.244000
      6 C2          -2.7850     1.6640     0.0920 ca         1 QVE       0.300000
      7 N           -4.0800     1.2290     0.1770 nv         1 QVE      -1.085000
      8 C9           0.2000    -1.2240     0.0200 ca         1 QVE      -0.248000
      9 C8           0.6000     0.0900     0.0240 ca         1 QVE       0.163100
     10 OB           1.8590     0.5150     0.0100 os         1 QVE      -0.311100
     11 CG           2.9140    -0.4310    -0.0060 c3         1 QVE       0.010600
     12 CD           4.2750     0.2860    -0.0120 c          1 QVE       0.728000
     13 OE2          4.2880     1.5240     0.0050 o          1 QVE      -0.730000
     14 OE1          5.2450    -0.4960    -0.0340 o          1 QVE      -0.730000
     15 C6          -0.3920     1.1150     0.0440 ca         1 QVE      -0.094000
     16 C5          -0.0760     2.4900     0.0390 ca         1 QVE      -0.091000
     17 C4          -1.0990     3.4040     0.0500 ca         1 QVE      -0.136000
     18 C3          -2.4430     3.0030     0.0750 ca         1 QVE      -0.225000
     19 H2          -4.7920     1.8550    -0.1600 hn         1 QVE       0.454500
     20 H3          -4.2230     0.2640    -0.0750 hn         1 QVE       0.454500
     21 H4           0.9080    -2.0390     0.0050 ha         1 QVE       0.151000
     22 H5           2.8550    -1.0850     0.8720 h1         1 QVE       0.024700
     23 H6           2.8400    -1.0730    -0.8920 h1         1 QVE       0.024700
     24 H8           0.9550     2.8150     0.0240 ha         1 QVE       0.137000
     25 H9          -0.8740     4.4630     0.0410 ha         1 QVE       0.078000
     26 H10         -3.2250     3.7530     0.0880 ha         1 QVE       0.076000
     27 OXT         -2.8350    -3.2210     0.0270 o          1 QVE      -0.716500
@<TRIPOS>BOND
     1     1     2 1   
     2     2     3 1   
     3     2    27 1   
     4     3     4 ar  
     5     3     8 ar  
     6     4     5 ar  
     7     5     6 ar  
     8     5    15 ar  
     9     6     7 1   
    10     6    18 ar  
    11     7    19 1   
    12     7    20 1   
    13     8     9 ar  
    14     8    21 1   
    15     9    10 1   
    16     9    15 ar  
    17    10    11 1   
    18    11    12 1   
    19    11    22 1   
    20    11    23 1   
    21    12    13 1   
    22    12    14 1   
    23    15    16 ar  
    24    16    17 ar  
    25    16    24 1   
    26    17    18 ar  
    27    17    25 1   
    28    18    26 1   
@<TRIPOS>SUBSTRUCTURE
     1 QVE         1 TEMP              0 ****  ****    0 ROOT
