@<TRIPOS>MOLECULE
QVE
   27    28     1     0     0
SMALL
No Charge or Current Charge


@<TRIPOS>ATOM
      1 O           -0.6750    -3.9730     0.0150 o          1 QVE      -0.716500
      2 C           -1.5620    -3.1240     0.0280 c          1 QVE       0.612500
      3 C10         -1.1670    -1.6100     0.0350 ca         1 QVE       0.331500
      4 N11         -2.1420    -0.6490     0.0530 nb         1 QVE      -0.709000
      5 C7          -1.8120     0.6750     0.0600 ca         1 QVE       0.244000
      6 C2          -2.8320     1.6870     0.0790 ca         1 QVE       0.300000
      7 N           -4.1800     1.3750     0.0950 nv         1 QVE      -1.085000
      8 C9           0.1940    -1.2420     0.0220 ca         1 QVE      -0.248000
      9 C8           0.5610     0.1150     0.0260 ca         1 QVE       0.163100
     10 OB           1.8870     0.5120     0.0120 os         1 QVE      -0.311100
     11 CG           2.9860    -0.4320    -0.0070 c3         1 QVE       0.010600
     12 CD           4.3870     0.2520    -0.0210 c          1 QVE       0.728000
     13 OE2          4.4660     1.4750    -0.0140 o          1 QVE      -0.730000
     14 OE1          5.3720    -0.4750    -0.0370 o          1 QVE      -0.730000
     15 C6          -0.4550     1.0920     0.0450 ca         1 QVE      -0.094000
     16 C5          -0.1310     2.4680     0.0460 ca         1 QVE      -0.091000
     17 C4          -1.1430     3.4380     0.0610 ca         1 QVE      -0.136000
     18 C3          -2.4880     3.0480     0.0760 ca         1 QVE      -0.225000
     19 H2          -4.8650     2.0910    -0.1380 hn         1 QVE       0.454500
     20 H3          -4.4410     0.4010    -0.0530 hn         1 QVE       0.454500
     21 H4           0.9460    -2.0230     0.0080 ha         1 QVE       0.151000
     22 H5           2.9450    -1.0790     0.8790 h1         1 QVE       0.024700
     23 H6           2.9220    -1.0680    -0.8990 h1         1 QVE       0.024700
     24 H8           0.9070     2.7940     0.0340 ha         1 QVE       0.137000
     25 H9          -0.8820     4.4940     0.0600 ha         1 QVE       0.078000
     26 H10         -3.2630     3.8090     0.0890 ha         1 QVE       0.076000
     27 OXT         -2.7490    -3.4440     0.0360 o          1 QVE      -0.716500
@<TRIPOS>BOND
     1     1     2 1   
     2     2     3 1   
     3     2    27 1   
     4     3     4 ar  
     5     3     8 ar  
     6     4     5 ar  
     7     5     6 ar  
     8     5    15 ar  
     9     6     7 1   
    10     6    18 ar  
    11     7    19 1   
    12     7    20 1   
    13     8     9 ar  
    14     8    21 1   
    15     9    10 1   
    16     9    15 ar  
    17    10    11 1   
    18    11    12 1   
    19    11    22 1   
    20    11    23 1   
    21    12    13 1   
    22    12    14 1   
    23    15    16 ar  
    24    16    17 ar  
    25    16    24 1   
    26    17    18 ar  
    27    17    25 1   
    28    18    26 1   
@<TRIPOS>SUBSTRUCTURE
     1 QVE         1 TEMP              0 ****  ****    0 ROOT
