@<TRIPOS>MOLECULE
QVG
   39    42     1     0     0
SMALL
abcg2


@<TRIPOS>ATOM
      1 N1         -19.9630     5.6280    26.8630 ns         1 QVG      -0.159000
      2 C4         -15.9640     5.8250    25.7820 ca         1 QVG       0.355900
      3 C5         -17.6660     4.8560    26.9680 ca         1 QVG       0.336900
      4 C6         -18.6100     5.7330    26.4860 ca         1 QVG      -0.083000
      5 C7         -20.4270     5.4380    28.1310 c          1 QVG       0.598100
      6 C8         -21.9510     5.5200    28.2470 c6         1 QVG      -0.082400
      7 C10        -22.0970     7.3620    29.9390 c6         1 QVG       0.158600
      8 C13        -23.4420     3.0090    31.3820 ca         1 QVG       0.219000
      9 C15        -22.5720     3.2640    29.1740 ca         1 QVG      -0.032000
     10 C17        -18.2090     6.7520    25.5780 ca         1 QVG      -0.005000
     11 C14        -23.0560     2.4370    30.1750 ca         1 QVG       0.039000
     12 F1         -23.9200     2.2240    32.3680 f          1 QVG      -0.160000
     13 C12        -23.3490     4.3650    31.6000 ca         1 QVG      -0.181000
     14 C16        -22.4640     4.6390    29.3570 ca         1 QVG      -0.163300
     15 C11        -22.8530     5.1870    30.5850 ca         1 QVG       0.192100
     16 O1         -22.8080     6.5130    30.8630 os         1 QVG      -0.340100
     17 C9         -22.3760     6.9790    28.5020 c6         1 QVG      -0.107400
     18 O          -19.7010     5.2680    29.1000 o          1 QVG      -0.559100
     19 N          -16.3540     4.9030    26.6320 nb         1 QVG      -0.643000
     20 C18        -19.0850     7.7250    25.0440 ca         1 QVG      -0.160000
     21 C          -18.5780     8.6460    24.1720 ca         1 QVG       0.189000
     22 F          -19.4060     9.5850    23.6600 f          1 QVG      -0.178000
     23 C3         -16.8350     6.7790    25.2080 ca         1 QVG      -0.105000
     24 C2         -16.3720     7.7580    24.2980 ca         1 QVG      -0.049000
     25 C1         -17.2320     8.6870    23.7760 ca         1 QVG      -0.147000
     26 H1         -20.6540     5.8010    26.1480 hn         1 QVG       0.154000
     27 H2         -14.9130     5.8450    25.5110 h4         1 QVG       0.025100
     28 H3         -17.9590     4.0740    27.6540 h4         1 QVG       0.043100
     29 H4         -22.3860     5.1880    27.3030 hc         1 QVG       0.069700
     30 H5         -21.0300     7.2940    30.1650 h1         1 QVG       0.072200
     31 H6         -22.4420     8.3700    30.1580 h1         1 QVG       0.072200
     32 H7         -22.2770     2.8290    28.2280 ha         1 QVG       0.128000
     33 H8         -23.6540     4.7870    32.5470 ha         1 QVG       0.152000
     34 H9         -21.8460     7.6600    27.8350 hc         1 QVG       0.064200
     35 H10        -23.4440     7.0750    28.2970 hc         1 QVG       0.064200
     36 H11        -20.1300     7.7680    25.3150 ha         1 QVG       0.128000
     37 H12        -15.3250     7.7640    24.0210 ha         1 QVG       0.126000
     38 H13        -16.9040     9.4460    23.0790 ha         1 QVG       0.139000
     39 CL         -23.1880     0.7180    29.9370 cl         1 QVG      -0.174000
@<TRIPOS>BOND
     1     1     4 1   
     2     1     5 1   
     3     1    26 1   
     4     2    19 ar  
     5     2    23 ar  
     6     2    27 1   
     7     3     4 ar  
     8     3    19 ar  
     9     3    28 1   
    10     4    10 ar  
    11     5     6 1   
    12     5    18 2   
    13     6    14 1   
    14     6    17 1   
    15     6    29 1   
    16     7    16 1   
    17     7    17 1   
    18     7    30 1   
    19     7    31 1   
    20     8    11 ar  
    21     8    12 1   
    22     8    13 ar  
    23     9    11 ar  
    24     9    14 ar  
    25     9    32 1   
    26    10    20 ar  
    27    10    23 ar  
    28    11    39 1   
    29    13    15 ar  
    30    13    33 1   
    31    14    15 ar  
    32    15    16 1   
    33    17    34 1   
    34    17    35 1   
    35    20    21 ar  
    36    20    36 1   
    37    21    22 1   
    38    21    25 ar  
    39    23    24 ar  
    40    24    25 ar  
    41    24    37 1   
    42    25    38 1   
@<TRIPOS>SUBSTRUCTURE
     1 QVG         1 TEMP              0 ****  ****    0 ROOT
