@<TRIPOS>MOLECULE
QVG
   39    42     1     0     0
SMALL
No Charge or Current Charge


@<TRIPOS>ATOM
      1 N1         -19.7780     6.0730    27.2120 ns         1 QVG      -0.159000
      2 C4         -15.8250     5.9910    25.7960 ca         1 QVG       0.355900
      3 C5         -17.3980     5.3420    27.3670 ca         1 QVG       0.336900
      4 C6         -18.4360     6.0610    26.7220 ca         1 QVG      -0.083000
      5 C7         -20.3280     5.6670    28.4220 c          1 QVG       0.598100
      6 C8         -21.8710     5.7970    28.5060 c6         1 QVG      -0.082400
      7 C10        -22.1900     7.3310    30.4880 c6         1 QVG       0.158600
      8 C13        -23.6690     2.7280    31.0090 ca         1 QVG       0.219000
      9 C15        -22.5500     3.3780    28.9480 ca         1 QVG      -0.032000
     10 C17        -18.1140     6.7710    25.5400 ca         1 QVG      -0.005000
     11 C14        -23.1320     2.3840    29.7530 ca         1 QVG       0.039000
     12 F1         -24.2370     1.7810    31.7910 f          1 QVG      -0.160000
     13 C12        -23.6230     4.0550    31.4600 ca         1 QVG      -0.181000
     14 C16        -22.4990     4.7140    29.3960 ca         1 QVG      -0.163300
     15 C11        -23.0330     5.0460    30.6640 ca         1 QVG       0.192100
     16 O1         -23.0220     6.3440    31.1340 os         1 QVG      -0.340100
     17 C9         -22.3030     7.2170    28.9540 c6         1 QVG      -0.107400
     18 O          -19.6690     5.2030    29.3450 o          1 QVG      -0.559100
     19 N          -16.1210     5.3040    26.9200 nb         1 QVG      -0.643000
     20 C18        -19.0720     7.5170    24.8160 ca         1 QVG      -0.160000
     21 C          -18.6950     8.2040    23.6520 ca         1 QVG       0.189000
     22 F          -19.6170     8.9150    22.9670 f          1 QVG      -0.178000
     23 C3         -16.7800     6.7310    25.0750 ca         1 QVG      -0.105000
     24 C2         -16.4090     7.4240    23.9050 ca         1 QVG      -0.049000
     25 C1         -17.3710     8.1610    23.1940 ca         1 QVG      -0.147000
     26 H1         -20.4530     6.4410    26.5550 hn         1 QVG       0.154000
     27 H2         -14.7890     5.9430    25.4610 h4         1 QVG       0.025100
     28 H3         -17.5790     4.7540    28.2640 h4         1 QVG       0.043100
     29 H4         -22.2440     5.7130    27.4750 hc         1 QVG       0.069700
     30 H5         -21.1480     7.1760    30.8010 h1         1 QVG       0.072200
     31 H6         -22.4980     8.3320    30.8230 h1         1 QVG       0.072200
     32 H7         -22.1430     3.1090    27.9760 ha         1 QVG       0.128000
     33 H8         -24.0430     4.3130    32.4270 ha         1 QVG       0.152000
     34 H9         -21.6950     7.9900    28.4640 hc         1 QVG       0.064200
     35 H10        -23.3450     7.4020    28.6570 hc         1 QVG       0.064200
     36 H11        -20.1070     7.5790    25.1390 ha         1 QVG       0.128000
     37 H12        -15.3810     7.3920    23.5480 ha         1 QVG       0.126000
     38 H13        -17.0920     8.6970    22.2910 ha         1 QVG       0.139000
     39 Cl         -23.1840     0.7190    29.1730 cl         1 QVG      -0.174000
@<TRIPOS>BOND
     1     1     4 1   
     2     1     5 1   
     3     1    26 1   
     4     2    19 ar  
     5     2    23 ar  
     6     2    27 1   
     7     3     4 ar  
     8     3    19 ar  
     9     3    28 1   
    10     4    10 ar  
    11     5     6 1   
    12     5    18 2   
    13     6    14 1   
    14     6    17 1   
    15     6    29 1   
    16     7    16 1   
    17     7    17 1   
    18     7    30 1   
    19     7    31 1   
    20     8    11 ar  
    21     8    12 1   
    22     8    13 ar  
    23     9    11 ar  
    24     9    14 ar  
    25     9    32 1   
    26    10    20 ar  
    27    10    23 ar  
    28    11    39 1   
    29    13    15 ar  
    30    13    33 1   
    31    14    15 ar  
    32    15    16 1   
    33    17    34 1   
    34    17    35 1   
    35    20    21 ar  
    36    20    36 1   
    37    21    22 1   
    38    21    25 ar  
    39    23    24 ar  
    40    24    25 ar  
    41    24    37 1   
    42    25    38 1   
@<TRIPOS>SUBSTRUCTURE
     1 QVG         1 TEMP              0 ****  ****    0 ROOT
