@<TRIPOS>MOLECULE
QVI
   62    65     1     0     0
SMALL
No Charge or Current Charge


@<TRIPOS>ATOM
      1 C1         -13.9500    20.8020    -9.9000 ca         1 QVI      -0.107500
      2 C2         -15.1390    20.2360   -10.3900 ca         1 QVI      -0.102000
      3 C3         -12.7520    20.0690    -9.9390 ca         1 QVI      -0.105000
      4 C4         -15.1290    18.9340   -10.9170 ca         1 QVI      -0.107500
      5 C5         -12.7350    18.7640   -10.4730 ca         1 QVI      -0.103300
      6 C6         -13.9310    18.2000   -10.9570 ca         1 QVI      -0.105000
      7 C7          -8.4890    13.6960   -13.1760 c6         1 QVI      -0.066400
      8 C8          -8.6010    14.6370   -11.9480 c6         1 QVI      -0.132700
      9 C11         -6.8140    12.2340   -11.8780 c6         1 QVI      -0.062700
     10 C12         -6.8910    13.2230   -10.6790 c6         1 QVI      -0.069400
     11 C18        -10.9450    17.7510   -12.0150 c3         1 QVI       0.044700
     12 C19        -11.4280    17.9820   -10.5560 c3         1 QVI      -0.039100
     13 C23        -12.0370    23.7490   -14.8230 ca         1 QVI      -0.187500
     14 C24        -10.8010    23.0700   -14.8990 ca         1 QVI      -0.045000
     15 C27        -12.9410    21.8660   -13.5500 ca         1 QVI      -0.156500
     16 C10         -8.2640    13.9370   -10.6060 c6         1 QVI      -0.066400
     17 C13         -5.4370    11.5050   -11.9010 c3         1 QVI       0.152800
     18 N14         -5.3320    10.4420   -12.9210 n8         1 QVI      -1.002200
     19 C9          -7.1140    12.9830   -13.2130 c6         1 QVI      -0.069400
     20 O16        -11.0070    14.8790   -11.7630 o          1 QVI      -0.604100
     21 N17         -9.8130    16.7960   -12.0430 ns         1 QVI      -0.496900
     22 C20        -10.5470    19.0830   -12.7220 c          1 QVI       0.600100
     23 O21         -9.3810    19.3480   -13.0040 o          1 QVI      -0.578100
     24 C28        -11.7090    21.1940   -13.6200 ca         1 QVI       0.013000
     25 C25        -13.1060    23.1300   -14.1410 ca         1 QVI      -0.045000
     26 C26        -10.6390    21.8060   -14.3050 ca         1 QVI      -0.156500
     27 C29        -12.2190    25.0720   -15.4390 cc         1 QVI       0.480000
     28 N30        -11.2770    25.7840   -16.1230 na         1 QVI      -0.226700
     29 N31        -11.7900    26.9640   -16.5540 nc         1 QVI      -0.203800
     30 N32        -13.0250    26.9540   -16.1320 nd         1 QVI      -0.041000
     31 N33        -13.3180    25.8010   -15.4410 nd         1 QVI      -0.398000
     32 H1         -13.9570    21.8110    -9.4910 ha         1 QVI       0.119000
     33 H2         -16.0660    20.8040   -10.3590 ha         1 QVI       0.119000
     34 H3         -11.8360    20.5210    -9.5640 ha         1 QVI       0.116500
     35 H4         -16.0490    18.4930   -11.2940 ha         1 QVI       0.119000
     36 H5         -13.9330    17.1920   -11.3690 ha         1 QVI       0.116500
     37 H7          -9.2910    12.9450   -13.1420 hc         1 QVI       0.054450
     38 H8          -7.8170    15.3950   -12.0880 hc         1 QVI       0.047700
     39 H9          -7.5770    11.4560   -11.7320 hc         1 QVI       0.048700
     40 H10         -6.7120    12.6840    -9.7370 hc         1 QVI       0.044450
     41 H11         -6.0910    13.9720   -10.7630 hc         1 QVI       0.044450
     42 H12        -11.7690    17.3170   -12.5960 h1         1 QVI       0.075700
     43 H13        -11.5710    17.0100   -10.0670 hc         1 QVI       0.063700
     44 H14        -10.6340    18.4860    -9.9900 hc         1 QVI       0.063700
     45 H16         -9.9540    23.5110   -15.4190 ha         1 QVI       0.124000
     46 H17        -13.7800    21.4100   -13.0280 ha         1 QVI       0.138000
     47 H18         -9.0470    13.2050   -10.3630 hc         1 QVI       0.054450
     48 H19         -8.2580    14.6710    -9.7880 hc         1 QVI       0.054450
     49 H20         -5.2620    11.0480   -10.9170 h1         1 QVI       0.027700
     50 H21         -4.6420    12.2420   -12.0810 h1         1 QVI       0.027700
     51 H22         -4.4290     9.9630   -12.8130 hn         1 QVI       0.393000
     52 H23         -6.0190     9.7090   -12.7100 hn         1 QVI       0.393000
     53 H25         -6.3230    13.7200   -13.4100 hc         1 QVI       0.044450
     54 H26         -7.0980    12.2800   -14.0560 hc         1 QVI       0.044450
     55 H27         -8.8780    17.1660   -12.1810 hn         1 QVI       0.322500
     56 H28        -14.0730    23.6240   -14.0650 ha         1 QVI       0.124000
     57 H29         -9.6750    21.3160   -14.3960 ha         1 QVI       0.138000
     58 H30        -10.3210    25.5090   -16.3050 hn         1 QVI       0.385000
     59 N22        -11.6200    19.9210   -12.9980 ns         1 QVI      -0.130000
     60 C15         -9.9250    15.4290   -11.9050 c          1 QVI       0.600100
     61 H6          -8.6360    14.2670   -14.1040 hc         1 QVI       0.054450
     62 H15        -12.5100    19.5680   -12.6700 hn         1 QVI       0.159000
@<TRIPOS>BOND
     1     1     2 ar  
     2     1     3 ar  
     3     1    32 1   
     4     2     4 ar  
     5     2    33 1   
     6     3     5 ar  
     7     3    34 1   
     8     4     6 ar  
     9     4    35 1   
    10     5     6 ar  
    11     5    12 1   
    12     6    36 1   
    13     7     8 1   
    14     7    19 1   
    15     7    37 1   
    16     7    61 1   
    17     8    16 1   
    18     8    38 1   
    19     8    60 1   
    20     9    10 1   
    21     9    17 1   
    22     9    19 1   
    23     9    39 1   
    24    10    16 1   
    25    10    40 1   
    26    10    41 1   
    27    11    12 1   
    28    11    21 1   
    29    11    22 1   
    30    11    42 1   
    31    12    43 1   
    32    12    44 1   
    33    13    14 ar  
    34    13    25 ar  
    35    13    27 1   
    36    14    26 ar  
    37    14    45 1   
    38    15    24 ar  
    39    15    25 ar  
    40    15    46 1   
    41    16    47 1   
    42    16    48 1   
    43    17    18 1   
    44    17    49 1   
    45    17    50 1   
    46    18    51 1   
    47    18    52 1   
    48    19    53 1   
    49    19    54 1   
    50    20    60 2   
    51    21    55 1   
    52    21    60 1   
    53    22    23 2   
    54    22    59 1   
    55    24    26 ar  
    56    24    59 1   
    57    25    56 1   
    58    26    57 1   
    59    27    28 1   
    60    27    31 2   
    61    28    29 1   
    62    28    58 1   
    63    29    30 2   
    64    30    31 1   
    65    59    62 1   
@<TRIPOS>SUBSTRUCTURE
     1 QVI         1 TEMP              0 ****  ****    0 ROOT
