@<TRIPOS>MOLECULE
QVI
   62    65     1     0     0
SMALL
abcg2


@<TRIPOS>ATOM
      1 C1         -13.0000    21.7310    -9.9590 ca         1 QVI      -0.107500
      2 C2         -14.3640    21.4550    -9.9730 ca         1 QVI      -0.102000
      3 C3         -12.0810    20.6960    -9.8260 ca         1 QVI      -0.105000
      4 C4         -14.8010    20.1400    -9.8450 ca         1 QVI      -0.107500
      5 C5         -12.5080    19.3730    -9.7080 ca         1 QVI      -0.103300
      6 C6         -13.8780    19.1080    -9.7120 ca         1 QVI      -0.105000
      7 C7          -7.6600    15.1760   -12.5240 c6         1 QVI      -0.066400
      8 C8          -8.8880    14.7310   -11.7120 c6         1 QVI      -0.132700
      9 C11         -6.8840    12.7670   -12.7130 c6         1 QVI      -0.062700
     10 C12         -8.1190    12.3330   -11.9170 c6         1 QVI      -0.069400
     11 C18        -11.3060    17.5750   -11.0330 c3         1 QVI       0.044700
     12 C19        -11.5100    18.2470    -9.6580 c3         1 QVI      -0.039100
     13 C23        -12.0310    22.5910   -15.2000 ca         1 QVI      -0.187500
     14 C24        -10.7930    22.0940   -14.7870 ca         1 QVI      -0.045000
     15 C27        -13.1110    20.8010   -13.9940 ca         1 QVI      -0.156500
     16 C10         -9.2900    13.3010   -12.0890 c6         1 QVI      -0.066400
     17 C13         -5.7370    11.7800   -12.5080 c3         1 QVI       0.152800
     18 N14         -4.5910    12.0740   -13.3810 n8         1 QVI      -1.002200
     19 C9          -6.4970    14.2020   -12.3440 c6         1 QVI      -0.069400
     20 O16        -10.6350    15.7740   -13.0120 o          1 QVI      -0.604100
     21 N17        -10.3300    16.5180   -10.9080 ns         1 QVI      -0.496900
     22 C20        -10.8460    18.6260   -12.0550 c          1 QVI       0.600100
     23 O21         -9.6770    18.9690   -12.1430 o          1 QVI      -0.578100
     24 C28        -11.8650    20.3060   -13.5840 ca         1 QVI       0.013000
     25 C25        -13.1930    21.9250   -14.7890 ca         1 QVI      -0.045000
     26 C26        -10.7000    20.9630   -13.9920 ca         1 QVI      -0.156500
     27 C29        -12.1390    23.7790   -16.0350 cc         1 QVI       0.480000
     28 N30        -11.1350    24.3940   -16.6870 na         1 QVI      -0.226700
     29 N31        -11.6180    25.4520   -17.3540 nc         1 QVI      -0.203800
     30 N32        -12.8840    25.4790   -17.1130 nd         1 QVI      -0.041000
     31 N33        -13.2450    24.4620   -16.3010 nd         1 QVI      -0.398000
     32 H1         -12.6510    22.7520   -10.0570 ha         1 QVI       0.119000
     33 H2         -15.0810    22.2590   -10.0790 ha         1 QVI       0.119000
     34 H3         -11.0190    20.9140    -9.8300 ha         1 QVI       0.116500
     35 H4         -15.8610    19.9170    -9.8490 ha         1 QVI       0.119000
     36 H5         -14.2230    18.0840    -9.6200 ha         1 QVI       0.116500
     37 H7          -7.9400    15.2260   -13.5800 hc         1 QVI       0.054450
     38 H8          -8.6200    14.7480   -10.6510 hc         1 QVI       0.047700
     39 H9          -7.1510    12.7520   -13.7790 hc         1 QVI       0.048700
     40 H10         -8.4250    11.3290   -12.2230 hc         1 QVI       0.044450
     41 H11         -7.8520    12.2720   -10.8550 hc         1 QVI       0.044450
     42 H12        -12.2520    17.1460   -11.3660 h1         1 QVI       0.075700
     43 H13        -11.8420    17.4710    -8.9640 hc         1 QVI       0.063700
     44 H14        -10.5430    18.6170    -9.3110 hc         1 QVI       0.063700
     45 H16         -9.8780    22.5930   -15.0780 ha         1 QVI       0.124000
     46 H17        -14.0140    20.2960   -13.6760 ha         1 QVI       0.138000
     47 H18         -9.6240    13.2950   -13.1300 hc         1 QVI       0.054450
     48 H19        -10.1370    12.9790   -11.4780 hc         1 QVI       0.054450
     49 H20         -6.1240    10.7620   -12.6530 h1         1 QVI       0.027700
     50 H21         -5.3940    11.8440   -11.4700 h1         1 QVI       0.027700
     51 H22         -3.8420    11.4150   -13.1950 hn         1 QVI       0.393000
     52 H23         -4.8600    11.9250   -14.3490 hn         1 QVI       0.393000
     53 H25         -6.1670    14.2170   -11.2980 hc         1 QVI       0.044450
     54 H26         -5.6470    14.5260   -12.9470 hc         1 QVI       0.044450
     55 H27         -9.7580    16.4890   -10.0790 hn         1 QVI       0.322500
     56 H28        -14.1610    22.2950   -15.0990 ha         1 QVI       0.124000
     57 H29         -9.7380    20.5940   -13.6840 ha         1 QVI       0.138000
     58 H30        -10.1520    24.1630   -16.7460 hn         1 QVI       0.385000
     59 N22        -11.8680    19.1690   -12.7720 ns         1 QVI      -0.130000
     60 C15        -10.0270    15.7040   -11.9420 c          1 QVI       0.600100
     61 H6          -7.3600    16.1830   -12.2210 hc         1 QVI       0.054450
     62 H15        -12.7830    18.7810   -12.5910 hn         1 QVI       0.159000
@<TRIPOS>BOND
     1     1     2 ar  
     2     1     3 ar  
     3     1    32 1   
     4     2     4 ar  
     5     2    33 1   
     6     3     5 ar  
     7     3    34 1   
     8     4     6 ar  
     9     4    35 1   
    10     5     6 ar  
    11     5    12 1   
    12     6    36 1   
    13     7     8 1   
    14     7    19 1   
    15     7    37 1   
    16     7    61 1   
    17     8    16 1   
    18     8    38 1   
    19     8    60 1   
    20     9    10 1   
    21     9    17 1   
    22     9    19 1   
    23     9    39 1   
    24    10    16 1   
    25    10    40 1   
    26    10    41 1   
    27    11    12 1   
    28    11    21 1   
    29    11    22 1   
    30    11    42 1   
    31    12    43 1   
    32    12    44 1   
    33    13    14 ar  
    34    13    25 ar  
    35    13    27 1   
    36    14    26 ar  
    37    14    45 1   
    38    15    24 ar  
    39    15    25 ar  
    40    15    46 1   
    41    16    47 1   
    42    16    48 1   
    43    17    18 1   
    44    17    49 1   
    45    17    50 1   
    46    18    51 1   
    47    18    52 1   
    48    19    53 1   
    49    19    54 1   
    50    20    60 2   
    51    21    55 1   
    52    21    60 1   
    53    22    23 2   
    54    22    59 1   
    55    24    26 ar  
    56    24    59 1   
    57    25    56 1   
    58    26    57 1   
    59    27    28 1   
    60    27    31 2   
    61    28    29 1   
    62    28    58 1   
    63    29    30 2   
    64    30    31 1   
    65    59    62 1   
@<TRIPOS>SUBSTRUCTURE
     1 QVI         1 TEMP              0 ****  ****    0 ROOT
