@<TRIPOS>MOLECULE
QVJ
   53    56     1     0     0
SMALL
abcg2


@<TRIPOS>ATOM
      1 N1         -20.8010     5.8240    26.7430 ns         1 QVJ      -0.182000
      2 C4         -22.2210     5.3890    28.6980 c6         1 QVJ      -0.067700
      3 C5         -22.5620     6.8480    29.0800 c6         1 QVJ      -0.102400
      4 C6         -21.7830     7.2790    30.3000 c6         1 QVJ       0.154600
      5 C7         -22.1510     5.1270    31.2320 ca         1 QVJ       0.159100
      6 C8         -22.1660     4.3320    32.3800 ca         1 QVJ      -0.134000
      7 C10        -22.1520     2.3700    31.0250 ca         1 QVJ       0.090000
      8 C13        -20.8270     5.3690    28.0180 c          1 QVJ       0.597100
      9 C15        -19.3370     4.9740    25.0210 ca         1 QVJ       0.320900
     10 C17        -17.5490     7.0210    25.3370 ca         1 QVJ      -0.093000
     11 C20        -17.9630     9.0370    27.2220 ca         1 QVJ      -0.089000
     12 C21        -18.8930     8.0340    27.1100 ca         1 QVJ      -0.094000
     13 C22        -18.7050     6.9980    26.1670 ca         1 QVJ      -0.003000
     14 O3         -19.8170     5.0140    28.6120 o          1 QVJ      -0.564100
     15 C14        -19.6080     5.9200    25.9760 ca         1 QVJ      -0.077000
     16 C19        -16.8110     9.0560    26.4040 ca         1 QVJ      -0.107000
     17 C18        -16.6080     8.0670    25.4760 ca         1 QVJ      -0.081000
     18 C16        -17.3880     5.9850    24.3850 ca         1 QVJ       0.365900
     19 N2         -18.2410     5.0000    24.2220 nb         1 QVJ      -0.655000
     20 C12        -22.1690     4.5390    29.9610 ca         1 QVJ      -0.140300
     21 C11        -22.1500     3.1450    29.8800 ca         1 QVJ      -0.054000
     22 CL         -22.1270     0.6210    30.8810 cl         1 QVJ      -0.210000
     23 C9         -22.1710     2.9520    32.2860 ca         1 QVJ      -0.059000
     24 O2         -22.1270     6.4710    31.4380 os         1 QVJ      -0.343100
     25 C3         -23.3430     4.8350    27.7980 c3         1 QVJ       0.156600
     26 O1         -23.5480     5.6980    26.6780 os         1 QVJ      -0.493000
     27 C2         -24.6990     5.3940    25.9090 c3         1 QVJ       0.073600
     28 C1         -24.5380     4.2660    24.8940 c          1 QVJ       0.560100
     29 O          -25.5330     3.8320    24.3110 o          1 QVJ      -0.601100
     30 N          -23.2950     3.8270    24.6720 ns         1 QVJ      -0.502900
     31 C          -22.9880     2.7750    23.7190 c3         1 QVJ       0.094300
     32 H1         -21.6800     6.0890    26.3160 hn         1 QVJ       0.180000
     33 H2         -22.3510     7.5230    28.2530 hc         1 QVJ       0.068200
     34 H3         -23.6310     6.9130    29.2950 hc         1 QVJ       0.068200
     35 H4         -20.7050     7.2060    30.1320 h1         1 QVJ       0.066700
     36 H5         -22.0260     8.3000    30.5860 h1         1 QVJ       0.066700
     37 H6         -22.1630     4.8180    33.3480 ha         1 QVJ       0.135000
     38 H7         -20.0240     4.1470    24.8760 h4         1 QVJ       0.016100
     39 H8         -18.1120     9.8290    27.9460 ha         1 QVJ       0.116000
     40 H9         -19.7720     8.0330    27.7380 ha         1 QVJ       0.117000
     41 H10        -16.0920     9.8580    26.5120 ha         1 QVJ       0.119000
     42 H11        -15.7320     8.0720    24.8400 ha         1 QVJ       0.119000
     43 H12        -16.5100     5.9960    23.7450 h4         1 QVJ       0.023100
     44 H13        -22.1260     2.6580    28.9160 ha         1 QVJ       0.125000
     45 H14        -22.1780     2.3400    33.1770 ha         1 QVJ       0.134000
     46 H15        -24.2610     4.7900    28.3910 h1         1 QVJ       0.050700
     47 H16        -23.1070     3.8270    27.4510 h1         1 QVJ       0.050700
     48 H17        -24.9550     6.2970    25.3530 h1         1 QVJ       0.082200
     49 H18        -25.5430     5.1400    26.5560 h1         1 QVJ       0.082200
     50 H19        -22.5390     4.2640    25.1720 hn         1 QVJ       0.320500
     51 H20        -21.9170     2.5890    23.7490 h1         1 QVJ       0.046033
     52 H21        -23.5180     1.8570    23.9740 h1         1 QVJ       0.046033
     53 H22        -23.2710     3.0700    22.7070 h1         1 QVJ       0.046033
@<TRIPOS>BOND
     1     1     8 1   
     2     1    15 1   
     3     1    32 1   
     4     2     3 1   
     5     2     8 1   
     6     2    20 1   
     7     2    25 1   
     8     3     4 1   
     9     3    33 1   
    10     3    34 1   
    11     4    24 1   
    12     4    35 1   
    13     4    36 1   
    14     5     6 ar  
    15     5    20 ar  
    16     5    24 1   
    17     6    23 ar  
    18     6    37 1   
    19     7    21 ar  
    20     7    22 1   
    21     7    23 ar  
    22     8    14 2   
    23     9    15 ar  
    24     9    19 ar  
    25     9    38 1   
    26    10    13 ar  
    27    10    17 ar  
    28    10    18 ar  
    29    11    12 ar  
    30    11    16 ar  
    31    11    39 1   
    32    12    13 ar  
    33    12    40 1   
    34    13    15 ar  
    35    16    17 ar  
    36    16    41 1   
    37    17    42 1   
    38    18    19 ar  
    39    18    43 1   
    40    20    21 ar  
    41    21    44 1   
    42    23    45 1   
    43    25    26 1   
    44    25    46 1   
    45    25    47 1   
    46    26    27 1   
    47    27    28 1   
    48    27    48 1   
    49    27    49 1   
    50    28    29 2   
    51    28    30 1   
    52    30    31 1   
    53    30    50 1   
    54    31    51 1   
    55    31    52 1   
    56    31    53 1   
@<TRIPOS>SUBSTRUCTURE
     1 QVJ         1 TEMP              0 ****  ****    0 ROOT
