@<TRIPOS>MOLECULE
QVJ
   53    56     1     0     0
SMALL
No Charge or Current Charge


@<TRIPOS>ATOM
      1 N1         -20.4380     5.9670    27.2400 ns         1 QVJ      -0.182000
      2 C4         -22.4230     5.2470    28.6220 c6         1 QVJ      -0.067700
      3 C5         -22.5480     6.7650    29.0010 c6         1 QVJ      -0.102400
      4 C6         -21.5210     7.1500    30.0820 c6         1 QVJ       0.154600
      5 C7         -21.9970     5.0270    31.1720 ca         1 QVJ       0.159100
      6 C8         -21.9380     4.2710    32.3530 ca         1 QVJ      -0.134000
      7 C10        -22.4950     2.2640    31.1120 ca         1 QVJ       0.090000
      8 C13        -21.1950     4.8990    27.7120 c          1 QVJ       0.597100
      9 C15        -18.9170     4.9270    25.5600 ca         1 QVJ       0.320900
     10 C17        -17.4300     7.2360    25.4160 ca         1 QVJ      -0.093000
     11 C20        -18.0470     9.5210    26.9310 ca         1 QVJ      -0.089000
     12 C21        -18.8410     8.3670    27.0490 ca         1 QVJ      -0.094000
     13 C22        -18.5390     7.2120    26.2900 ca         1 QVJ      -0.003000
     14 O3         -20.9190     3.7360    27.4420 o          1 QVJ      -0.564100
     15 C14        -19.3040     6.0220    26.3740 ca         1 QVJ      -0.077000
     16 C19        -16.9460     9.5350    26.0590 ca         1 QVJ      -0.107000
     17 C18        -16.6360     8.3940    25.3020 ca         1 QVJ      -0.081000
     18 C16        -17.1270     6.0880    24.6600 ca         1 QVJ       0.365900
     19 N2         -17.8550     4.9520    24.7220 nb         1 QVJ      -0.655000
     20 C12        -22.3300     4.4120    29.9340 ca         1 QVJ      -0.140300
     21 C11        -22.5670     3.0140    29.9260 ca         1 QVJ      -0.054000
     22 Cl         -22.7950     0.5310    31.0700 cl         1 QVJ      -0.210000
     23 C9         -22.1850     2.8900    32.3270 ca         1 QVJ      -0.059000
     24 O2         -21.7500     6.3800    31.2720 os         1 QVJ      -0.343100
     25 C3         -23.6790     4.8480    27.7820 c3         1 QVJ       0.156600
     26 O1         -23.7390     5.6780    26.6030 os         1 QVJ      -0.493000
     27 C2         -24.8320     5.3810    25.6920 c3         1 QVJ       0.073600
     28 C1         -24.6230     4.0570    24.9150 c          1 QVJ       0.560100
     29 O          -25.5450     3.3210    24.5910 o          1 QVJ      -0.601100
     30 N          -23.3120     3.7660    24.6030 ns         1 QVJ      -0.502900
     31 C          -22.8710     2.5660    23.8900 c3         1 QVJ       0.094300
     32 H1         -20.7700     6.8730    27.5390 hn         1 QVJ       0.180000
     33 H2         -22.4520     7.4200    28.1250 hc         1 QVJ       0.068200
     34 H3         -23.5520     6.9630    29.4030 hc         1 QVJ       0.068200
     35 H4         -20.4960     6.9620    29.7330 h1         1 QVJ       0.066700
     36 H5         -21.6040     8.2180    30.3280 h1         1 QVJ       0.066700
     37 H6         -21.6950     4.7600    33.2930 ha         1 QVJ       0.135000
     38 H7         -19.4770     3.9960    25.5470 h4         1 QVJ       0.016100
     39 H8         -18.2850    10.4060    27.5170 ha         1 QVJ       0.116000
     40 H9         -19.6840     8.3900    27.7330 ha         1 QVJ       0.117000
     41 H10        -16.3330    10.4300    25.9710 ha         1 QVJ       0.119000
     42 H11        -15.7810     8.4110    24.6280 ha         1 QVJ       0.119000
     43 H12        -16.2780     6.0780    23.9780 h4         1 QVJ       0.023100
     44 H13        -22.8000     2.4910    29.0040 ha         1 QVJ       0.125000
     45 H14        -22.1340     2.3060    33.2430 ha         1 QVJ       0.134000
     46 H15        -24.5790     4.9840    28.3970 h1         1 QVJ       0.050700
     47 H16        -23.6220     3.7900    27.4980 h1         1 QVJ       0.050700
     48 H17        -24.9130     6.1740    24.9390 h1         1 QVJ       0.082200
     49 H18        -25.7900     5.3220    26.2240 h1         1 QVJ       0.082200
     50 H19        -22.6180     4.4300    24.9270 hn         1 QVJ       0.320500
     51 H20        -21.7780     2.5790    23.7910 h1         1 QVJ       0.046033
     52 H21        -23.1710     1.6710    24.4510 h1         1 QVJ       0.046033
     53 H22        -23.3250     2.5400    22.8910 h1         1 QVJ       0.046033
@<TRIPOS>BOND
     1     1     8 1   
     2     1    15 1   
     3     1    32 1   
     4     2     3 1   
     5     2     8 1   
     6     2    20 1   
     7     2    25 1   
     8     3     4 1   
     9     3    33 1   
    10     3    34 1   
    11     4    24 1   
    12     4    35 1   
    13     4    36 1   
    14     5     6 ar  
    15     5    20 ar  
    16     5    24 1   
    17     6    23 ar  
    18     6    37 1   
    19     7    21 ar  
    20     7    22 1   
    21     7    23 ar  
    22     8    14 2   
    23     9    15 ar  
    24     9    19 ar  
    25     9    38 1   
    26    10    13 ar  
    27    10    17 ar  
    28    10    18 ar  
    29    11    12 ar  
    30    11    16 ar  
    31    11    39 1   
    32    12    13 ar  
    33    12    40 1   
    34    13    15 ar  
    35    16    17 ar  
    36    16    41 1   
    37    17    42 1   
    38    18    19 ar  
    39    18    43 1   
    40    20    21 ar  
    41    21    44 1   
    42    23    45 1   
    43    25    26 1   
    44    25    46 1   
    45    25    47 1   
    46    26    27 1   
    47    27    28 1   
    48    27    48 1   
    49    27    49 1   
    50    28    29 2   
    51    28    30 1   
    52    30    31 1   
    53    30    50 1   
    54    31    51 1   
    55    31    52 1   
    56    31    53 1   
@<TRIPOS>SUBSTRUCTURE
     1 QVJ         1 TEMP              0 ****  ****    0 ROOT
