@<TRIPOS>MOLECULE
QVK
   30    32     1     0     0
SMALL
No Charge or Current Charge


@<TRIPOS>ATOM
      1 C13         17.2520    31.0980    15.2470 cc         1 QVK      -0.049400
      2 C15         15.0080    32.0610    14.8110 ca         1 QVK      -0.102000
      3 C17         13.3820    32.2920    16.6090 ca         1 QVK      -0.106000
      4 N01         15.5350    28.6500    15.4510 nt         1 QVK      -0.589000
      5 C02         16.8250    28.5320    15.0800 c          1 QVK       0.633300
      6 O03         17.2750    27.4250    14.8320 o          1 QVK      -0.622100
      7 C04         17.6440    29.7800    14.9780 cd         1 QVK      -0.123300
      8 N05         19.0030    29.8150    14.5590 na         1 QVK      -0.179700
      9 C06         19.3900    31.1480    14.5650 ca         1 QVK      -0.038200
     10 C07         20.6380    31.6840    14.2170 ca         1 QVK      -0.117000
     11 C08         20.8060    33.0840    14.2980 ca         1 QVK      -0.078000
     12 C09         19.7370    33.9090    14.7200 ca         1 QVK       0.088000
     13 Cl1         19.9620    35.6510    14.8160 cl         1 QVK      -0.211000
     14 C11         18.4920    33.3440    15.0640 ca         1 QVK      -0.044000
     15 C12         18.3630    31.9510    14.9710 ca         1 QVK      -0.098800
     16 C14         15.9330    31.5040    15.7130 ca         1 QVK      -0.036800
     17 C16         13.7330    32.4520    15.2580 ca         1 QVK      -0.113000
     18 C18         14.3080    31.7450    17.5150 ca         1 QVK      -0.113000
     19 C19         15.5820    31.3550    17.0680 ca         1 QVK      -0.102000
     20 H1          15.2780    32.1860    13.7650 ha         1 QVK       0.121000
     21 H2          12.3960    32.5950    16.9550 ha         1 QVK       0.115000
     22 H3          14.9630    27.8240    15.5230 hn         1 QVK       0.325500
     23 H4          15.1560    29.5630    15.6530 hn         1 QVK       0.325500
     24 H5          19.5710    29.0160    14.2930 hn         1 QVK       0.375000
     25 H6          21.4550    31.0420    13.8930 ha         1 QVK       0.124000
     26 H7          21.7620    33.5320    14.0350 ha         1 QVK       0.129000
     27 H8          17.6630    33.9650    15.3910 ha         1 QVK       0.136000
     28 H9          13.0190    32.8790    14.5570 ha         1 QVK       0.116000
     29 H10         14.0380    31.6250    18.5620 ha         1 QVK       0.116000
     30 H11         16.2980    30.9350    17.7710 ha         1 QVK       0.121000
@<TRIPOS>BOND
     1     1     7 2   
     2     1    15 1   
     3     1    16 1   
     4     2    16 ar  
     5     2    17 ar  
     6     2    20 1   
     7     3    17 ar  
     8     3    18 ar  
     9     3    21 1   
    10     4     5 1   
    11     4    22 1   
    12     4    23 1   
    13     5     6 2   
    14     5     7 1   
    15     7     8 1   
    16     8     9 1   
    17     8    24 1   
    18     9    10 ar  
    19     9    15 ar  
    20    10    11 ar  
    21    10    25 1   
    22    11    12 ar  
    23    11    26 1   
    24    12    13 1   
    25    12    14 ar  
    26    14    15 ar  
    27    14    27 1   
    28    16    19 ar  
    29    17    28 1   
    30    18    19 ar  
    31    18    29 1   
    32    19    30 1   
@<TRIPOS>SUBSTRUCTURE
     1 QVK         1 TEMP              0 ****  ****    0 ROOT
