@<TRIPOS>MOLECULE
QVK
   30    32     1     0     0
SMALL
bcc


@<TRIPOS>ATOM
      1 C13         17.1850    31.0800    15.2740 cc         1 QVK      -0.049400
      2 C15         15.1010    32.4000    14.9710 ca         1 QVK      -0.120000
      3 C17         13.3950    32.4580    16.6680 ca         1 QVK      -0.124000
      4 N01         15.7100    28.4010    15.3220 nt         1 QVK      -0.656000
      5 C02         17.0440    28.4540    15.2560 c          1 QVK       0.700300
      6 O03         17.7640    27.4630    15.2940 o          1 QVK      -0.622100
      7 C04         17.6580    29.7950    15.1100 cd         1 QVK      -0.123300
      8 N05         18.9620    29.8390    14.7040 na         1 QVK      -0.129400
      9 C06         19.3630    31.1280    14.5830 ca         1 QVK      -0.038200
     10 C07         20.5930    31.6650    14.2000 ca         1 QVK      -0.135000
     11 C08         20.7160    33.0360    14.1850 ca         1 QVK      -0.096000
     12 C09         19.6310    33.8530    14.5500 ca         1 QVK      -0.003600
     13 CL1         19.8540    35.5770    14.5200 cl         1 QVK      -0.119400
     14 C11         18.4130    33.3390    14.9270 ca         1 QVK      -0.062000
     15 C12         18.2700    31.9460    14.9360 ca         1 QVK      -0.098800
     16 C14         15.8700    31.5340    15.7510 ca         1 QVK      -0.036800
     17 C16         13.8740    32.8590    15.4280 ca         1 QVK      -0.131000
     18 C18         14.1530    31.5980    17.4520 ca         1 QVK      -0.131000
     19 C19         15.3830    31.1430    16.9990 ca         1 QVK      -0.120000
     20 H1          15.4610    32.7060    13.9970 ha         1 QVK       0.139000
     21 H2          12.4380    32.8160    17.0220 ha         1 QVK       0.133000
     22 H3          15.2510    27.5100    15.4210 hn         1 QVK       0.325500
     23 H4          15.1270    29.2130    15.2130 hn         1 QVK       0.325500
     24 H5          19.5180    29.0210    14.5080 hn         1 QVK       0.324700
     25 H6          21.4280    31.0330    13.9250 ha         1 QVK       0.142000
     26 H7          21.6540    33.4890    13.8930 ha         1 QVK       0.147000
     27 H8          17.5940    33.9880    15.2070 ha         1 QVK       0.154000
     28 H9          13.2900    33.5300    14.8110 ha         1 QVK       0.134000
     29 H10         13.7910    31.2850    18.4220 ha         1 QVK       0.134000
     30 H11         15.9770    30.4850    17.6220 ha         1 QVK       0.139000
@<TRIPOS>BOND
     1     1     7 2   
     2     1    15 1   
     3     1    16 1   
     4     2    16 ar  
     5     2    17 ar  
     6     2    20 1   
     7     3    17 ar  
     8     3    18 ar  
     9     3    21 1   
    10     4     5 1   
    11     4    22 1   
    12     4    23 1   
    13     5     6 2   
    14     5     7 1   
    15     7     8 1   
    16     8     9 1   
    17     8    24 1   
    18     9    10 ar  
    19     9    15 ar  
    20    10    11 ar  
    21    10    25 1   
    22    11    12 ar  
    23    11    26 1   
    24    12    13 1   
    25    12    14 ar  
    26    14    15 ar  
    27    14    27 1   
    28    16    19 ar  
    29    17    28 1   
    30    18    19 ar  
    31    18    29 1   
    32    19    30 1   
@<TRIPOS>SUBSTRUCTURE
     1 QVK         1 TEMP              0 ****  ****    0 ROOT
