@<TRIPOS>MOLECULE
QVL
   30    32     1     0     0
SMALL
abcg2


@<TRIPOS>ATOM
      1 C15        -44.0870   -31.6190     2.9570 cc         1 QVL       0.520400
      2 C14        -45.7740   -29.5070     4.2520 ca         1 QVL       0.019000
      3 C13        -46.9190   -29.3140     5.0110 ca         1 QVL      -0.146800
      4 C11        -48.3230   -29.1900     4.7330 cc         1 QVL      -0.116400
      5 C10        -48.9310   -29.0220     5.9480 cd         1 QVL      -0.149100
      6 C01        -42.0130   -30.5170     2.2590 c3         1 QVL       0.093300
      7 C03        -43.2600   -29.7190     4.2130 c          1 QVL       0.649700
      8 C05        -44.5530   -29.5710     4.9240 ca         1 QVL      -0.236600
      9 C06        -44.5190   -29.4330     6.3240 ca         1 QVL       0.416900
     10 C08        -46.7540   -29.2060     6.4230 ca         1 QVL       0.398500
     11 N02        -43.2200   -30.5520     3.1010 n          1 QVL      -0.416300
     12 N07        -45.5990   -29.2610     7.0830 nb         1 QVL      -0.683000
     13 N09        -47.9890   -29.0280     6.9650 na         1 QVL      -0.330400
     14 N16        -44.4600   -32.4820     3.8850 nd         1 QVL      -0.389000
     15 N17        -45.3080   -33.3410     3.2760 nd         1 QVL      -0.031000
     16 N18        -45.4440   -33.0530     2.0260 nc         1 QVL      -0.195800
     17 N19        -44.6900   -31.9680     1.8080 na         1 QVL      -0.242700
     18 O04        -42.2610   -29.0950     4.5410 o          1 QVL      -0.554100
     19 H141       -45.8270   -29.5850     3.1740 ha         1 QVL       0.117000
     20 H123       -48.5910   -28.4560     2.7330 hc         1 QVL       0.041700
     21 H121       -48.7780   -30.1970     2.8920 hc         1 QVL       0.041700
     22 H122       -50.0520   -29.1190     3.4740 hc         1 QVL       0.041700
     23 H101       -49.9770   -28.8960     6.1790 h4         1 QVL       0.219000
     24 H012       -42.2230   -31.0190     1.3190 h1         1 QVL       0.053367
     25 H013       -41.7490   -29.4810     2.0650 h1         1 QVL       0.053367
     26 H011       -41.1820   -31.0150     2.7590 h1         1 QVL       0.053367
     27 H061       -43.5660   -29.4770     6.8360 h4         1 QVL       0.038100
     28 H091       -48.1870   -28.9330     7.9490 hn         1 QVL       0.367000
     29 H191       -44.6490   -31.5350     0.8940 hn         1 QVL       0.388000
     30 C12        -48.9720   -29.2430     3.3890 c3         1 QVL      -0.019900
@<TRIPOS>BOND
     1     1    11 1   
     2     1    14 2   
     3     1    17 1   
     4     2     3 ar  
     5     2     8 ar  
     6     2    19 1   
     7     3     4 1   
     8     3    10 ar  
     9     4     5 2   
    10     4    30 1   
    11     5    13 1   
    12     5    23 1   
    13     6    11 1   
    14     6    24 1   
    15     6    25 1   
    16     6    26 1   
    17     7     8 1   
    18     7    11 1   
    19     7    18 2   
    20     8     9 ar  
    21     9    12 ar  
    22     9    27 1   
    23    10    12 ar  
    24    10    13 1   
    25    13    28 1   
    26    14    15 1   
    27    15    16 2   
    28    16    17 1   
    29    17    29 1   
    30    20    30 1   
    31    21    30 1   
    32    22    30 1   
@<TRIPOS>SUBSTRUCTURE
     1 QVL         1 TEMP              0 ****  ****    0 ROOT
