@<TRIPOS>MOLECULE
QVL
   30    32     1     0     0
SMALL
No Charge or Current Charge


@<TRIPOS>ATOM
      1 C15        -44.1250   -31.6900     2.8600 cc         1 QVL       0.520400
      2 C14        -45.8240   -29.5410     4.3680 ca         1 QVL       0.019000
      3 C13        -46.9320   -29.2750     5.1800 ca         1 QVL      -0.146800
      4 C11        -48.3110   -29.1270     4.8160 cc         1 QVL      -0.116400
      5 C10        -48.9820   -28.8680     6.0010 cd         1 QVL      -0.149100
      6 C01        -42.2240   -30.2910     2.0870 c3         1 QVL       0.093300
      7 C03        -43.2930   -29.8960     4.2830 c          1 QVL       0.649700
      8 C05        -44.5750   -29.6420     5.0190 ca         1 QVL      -0.236600
      9 C06        -44.5250   -29.4340     6.4120 ca         1 QVL       0.416900
     10 C08        -46.8040   -29.1060     6.5360 ca         1 QVL       0.398500
     11 N02        -43.3320   -30.5600     3.0400 n          1 QVL      -0.416300
     12 N07        -45.6210   -29.1750     7.1720 nb         1 QVL      -0.683000
     13 N09        -48.0490   -28.8550     7.0690 na         1 QVL      -0.330400
     14 N16        -44.7950   -32.3640     3.7690 nd         1 QVL      -0.389000
     15 N17        -45.3750   -33.4300     3.1200 nd         1 QVL      -0.031000
     16 N18        -45.0640   -33.4490     1.8520 nc         1 QVL      -0.195800
     17 N19        -44.2700   -32.3630     1.6830 na         1 QVL      -0.242700
     18 O04        -42.2460   -29.4280     4.7100 o          1 QVL      -0.554100
     19 H141       -45.9330   -29.6500     3.2910 ha         1 QVL       0.117000
     20 H123       -48.4710   -28.4720     2.7710 hc         1 QVL       0.041700
     21 H121       -48.6750   -30.2200     2.9970 hc         1 QVL       0.041700
     22 H122       -49.9810   -29.1090     3.4500 hc         1 QVL       0.041700
     23 H101       -50.0450   -28.6950     6.1610 h4         1 QVL       0.219000
     24 H012       -42.5850   -30.3550     1.0530 h1         1 QVL       0.053367
     25 H013       -41.8200   -29.2810     2.2360 h1         1 QVL       0.053367
     26 H011       -41.4200   -31.0240     2.2360 h1         1 QVL       0.053367
     27 H061       -43.5790   -29.4870     6.9510 h4         1 QVL       0.038100
     28 H091       -48.2420   -28.6920     8.0500 hn         1 QVL       0.367000
     29 H191       -43.8680   -32.1170     0.7880 hn         1 QVL       0.388000
     30 C12        -48.8920   -29.2380     3.4330 c3         1 QVL      -0.019900
@<TRIPOS>BOND
     1     1    11 1   
     2     1    14 2   
     3     1    17 1   
     4     2     3 ar  
     5     2     8 ar  
     6     2    19 1   
     7     3     4 1   
     8     3    10 ar  
     9     4     5 2   
    10     4    30 1   
    11     5    13 1   
    12     5    23 1   
    13     6    11 1   
    14     6    24 1   
    15     6    25 1   
    16     6    26 1   
    17     7     8 1   
    18     7    11 1   
    19     7    18 2   
    20     8     9 ar  
    21     9    12 ar  
    22     9    27 1   
    23    10    12 ar  
    24    10    13 1   
    25    13    28 1   
    26    14    15 1   
    27    15    16 2   
    28    16    17 1   
    29    17    29 1   
    30    20    30 1   
    31    21    30 1   
    32    22    30 1   
@<TRIPOS>SUBSTRUCTURE
     1 QVL         1 TEMP              0 ****  ****    0 ROOT
