@<TRIPOS>MOLECULE
QVM
   54    54     1     0     0
SMALL
abcg2


@<TRIPOS>ATOM
      1 C1          14.6560     6.2530    25.1370 c6         1 QVM       0.000200
      2 C3          14.3330     7.6900    25.5490 ce         1 QVM      -0.085200
      3 C6          16.4160    10.7330    24.4290 ce         1 QVM      -0.047200
      4 O           17.2690    19.9190    18.5710 o          1 QVM      -0.521100
      5 C16         17.6960    19.0730    19.3340 c          1 QVM       0.567100
      6 C15         16.9390    17.9470    19.8350 ce         1 QVM      -0.326200
      7 C14         17.5250    17.0610    20.6720 cf         1 QVM      -0.102000
      8 C13         16.8700    15.9160    21.2200 cf         1 QVM      -0.216000
      9 C11         17.4560    15.0020    22.0420 ce         1 QVM      -0.025200
     10 C12         18.8970    15.1260    22.4520 c3         1 QVM      -0.063900
     11 C10         16.6460    13.9000    22.5010 ce         1 QVM      -0.193000
     12 C9          17.0390    12.8730    23.2890 cf         1 QVM      -0.146000
     13 C8          16.1350    11.8290    23.6780 cf         1 QVM      -0.195000
     14 C7          17.7680    10.4280    24.9940 c3         1 QVM      -0.058900
     15 C5          15.3320     9.8030    24.6880 cf         1 QVM      -0.193000
     16 C4          15.4360     8.6380    25.3480 ce         1 QVM      -0.150000
     17 C17         13.1420     8.0490    26.0620 c2         1 QVM      -0.091400
     18 C18         12.7970     9.4310    26.5360 c3         1 QVM      -0.057900
     19 C19         12.0000     7.0760    26.2010 c6         1 QVM      -0.081200
     20 C20         12.4140     5.6170    26.1190 c6         1 QVM       0.174300
     21 O1          11.3040     4.7640    25.9170 oh         1 QVM      -0.660000
     22 C21         13.3700     5.4390    24.9620 c6         1 QVM      -0.068400
     23 C2          15.5630     5.6010    26.1900 c3         1 QVM      -0.081600
     24 C           15.3930     6.2410    23.7910 c3         1 QVM      -0.081600
     25 H1          18.7380    19.1260    19.7030 h4         1 QVM      -0.023800
     26 H2          15.9070    17.8300    19.5220 ha         1 QVM       0.198000
     27 H3          18.5630    17.2340    20.9440 ha         1 QVM       0.170000
     28 H4          15.8290    15.7710    20.9470 ha         1 QVM       0.181000
     29 H5          19.2080    14.3480    23.1420 hc         1 QVM       0.046033
     30 H6          19.5560    15.0720    21.5850 hc         1 QVM       0.046033
     31 H7          19.0840    16.0820    22.9410 hc         1 QVM       0.046033
     32 H8          15.6140    13.9080    22.1630 ha         1 QVM       0.174000
     33 H9          18.0620    12.8240    23.6400 ha         1 QVM       0.174000
     34 H10         15.1140    11.9360    23.3210 ha         1 QVM       0.172000
     35 H11         18.1220     9.4530    24.6490 hc         1 QVM       0.043700
     36 H12         18.5210    11.1630    24.7230 hc         1 QVM       0.043700
     37 H13         17.7310    10.3810    26.0840 hc         1 QVM       0.043700
     38 H14         14.3640    10.0840    24.2830 ha         1 QVM       0.175000
     39 H15         16.4150     8.3210    25.6970 ha         1 QVM       0.175000
     40 H16         12.3000     9.3780    27.5070 hc         1 QVM       0.043033
     41 H17         13.6590    10.0850    26.6330 hc         1 QVM       0.043033
     42 H18         12.0900     9.9120    25.8550 hc         1 QVM       0.043033
     43 H19         11.4760     7.2650    27.1440 hc         1 QVM       0.052200
     44 H20         11.2700     7.2830    25.4080 hc         1 QVM       0.052200
     45 H21         12.9240     5.3480    27.0540 h1         1 QVM       0.032700
     46 H22         10.7120     4.8570    26.6710 ho         1 QVM       0.441000
     47 H23         12.8690     5.7540    24.0400 hc         1 QVM       0.056200
     48 H24         13.6310     4.3830    24.8380 hc         1 QVM       0.056200
     49 H25         15.0730     5.5170    27.1600 hc         1 QVM       0.035867
     50 H26         15.8520     4.5970    25.8710 hc         1 QVM       0.035867
     51 H27         16.4830     6.1700    26.3380 hc         1 QVM       0.035867
     52 H28         15.5280     5.2120    23.4490 hc         1 QVM       0.035867
     53 H29         14.8320     6.7800    23.0250 hc         1 QVM       0.035867
     54 H30         16.3830     6.6940    23.8600 hc         1 QVM       0.035867
@<TRIPOS>BOND
     1     1     2 1   
     2     1    22 1   
     3     1    23 1   
     4     1    24 1   
     5     2    16 1   
     6     2    17 2   
     7     3    13 2   
     8     3    14 1   
     9     3    15 1   
    10     4     5 2   
    11     5     6 1   
    12     5    25 1   
    13     6     7 2   
    14     6    26 1   
    15     7     8 1   
    16     7    27 1   
    17     8     9 2   
    18     8    28 1   
    19     9    10 1   
    20     9    11 1   
    21    10    29 1   
    22    10    30 1   
    23    10    31 1   
    24    11    12 2   
    25    11    32 1   
    26    12    13 1   
    27    12    33 1   
    28    13    34 1   
    29    14    35 1   
    30    14    36 1   
    31    14    37 1   
    32    15    16 2   
    33    15    38 1   
    34    16    39 1   
    35    17    18 1   
    36    17    19 1   
    37    18    40 1   
    38    18    41 1   
    39    18    42 1   
    40    19    20 1   
    41    19    43 1   
    42    19    44 1   
    43    20    21 1   
    44    20    22 1   
    45    20    45 1   
    46    21    46 1   
    47    22    47 1   
    48    22    48 1   
    49    23    49 1   
    50    23    50 1   
    51    23    51 1   
    52    24    52 1   
    53    24    53 1   
    54    24    54 1   
@<TRIPOS>SUBSTRUCTURE
     1 QVM         1 TEMP              0 ****  ****    0 ROOT
