@<TRIPOS>MOLECULE
QVM
   54    54     1     0     0
SMALL
No Charge or Current Charge


@<TRIPOS>ATOM
      1 C1          14.6470     6.1560    25.1740 c6         1 QVM       0.000200
      2 C3          14.3310     7.6500    25.4630 ce         1 QVM      -0.085200
      3 C6          16.4300    10.6220    24.3190 ce         1 QVM      -0.047200
      4 O           17.0400    20.1140    18.6020 o          1 QVM      -0.521100
      5 C16         17.6340    19.2980    19.2970 c          1 QVM       0.567100
      6 C15         16.9670    18.1110    19.8930 ce         1 QVM      -0.326200
      7 C14         17.5910    17.1830    20.6700 cf         1 QVM      -0.102000
      8 C13         16.9180    16.0180    21.2400 cf         1 QVM      -0.216000
      9 C11         17.4510    15.0750    22.0730 ce         1 QVM      -0.025200
     10 C12         18.8810    15.1510    22.6020 c3         1 QVM      -0.063900
     11 C10         16.6100    13.9600    22.5520 ce         1 QVM      -0.193000
     12 C9          17.0250    12.8220    23.1810 cf         1 QVM      -0.146000
     13 C8          16.1210    11.7540    23.6080 cf         1 QVM      -0.195000
     14 C7          17.8450    10.3460    24.8340 c3         1 QVM      -0.058900
     15 C5          15.3840     9.7660    24.5650 cf         1 QVM      -0.193000
     16 C4          15.4830     8.5760    25.2320 ce         1 QVM      -0.150000
     17 C17         13.1360     8.0640    25.9820 c2         1 QVM      -0.091400
     18 C18         12.8000     9.4960    26.3790 c3         1 QVM      -0.057900
     19 C19         11.9570     7.1090    26.1790 c6         1 QVM      -0.081200
     20 C20         12.3640     5.6220    26.1910 c6         1 QVM       0.174300
     21 O1          11.2010     4.7950    26.0730 oh         1 QVM      -0.660000
     22 C21         13.3330     5.3360    25.0320 c6         1 QVM      -0.068400
     23 C2          15.5270     5.5900    26.3350 c3         1 QVM      -0.081600
     24 C           15.4620     6.0040    23.8490 c3         1 QVM      -0.081600
     25 H1          18.7190    19.4120    19.5170 h4         1 QVM      -0.023800
     26 H2          15.9060    18.0110    19.6700 ha         1 QVM       0.198000
     27 H3          18.6570    17.3110    20.8690 ha         1 QVM       0.170000
     28 H4          15.8740    15.8920    20.9460 ha         1 QVM       0.181000
     29 H5          18.9650    14.7430    23.6150 hc         1 QVM       0.046033
     30 H6          19.5700    14.5940    21.9560 hc         1 QVM       0.046033
     31 H7          19.2450    16.1810    22.6710 hc         1 QVM       0.046033
     32 H8          15.5410    14.0620    22.3610 ha         1 QVM       0.174000
     33 H9          18.0920    12.6830    23.3490 ha         1 QVM       0.174000
     34 H10         15.0840    11.8960    23.2970 ha         1 QVM       0.172000
     35 H11         18.3580     9.6110    24.2030 hc         1 QVM       0.043700
     36 H12         18.4720    11.2410    24.8770 hc         1 QVM       0.043700
     37 H13         17.8340     9.9590    25.8600 hc         1 QVM       0.043700
     38 H14         14.3950    10.0310    24.1890 ha         1 QVM       0.175000
     39 H15         16.4810     8.2480    25.5600 ha         1 QVM       0.175000
     40 H16         12.1610     9.5290    27.2700 hc         1 QVM       0.043033
     41 H17         13.6930    10.0810    26.6240 hc         1 QVM       0.043033
     42 H18         12.2660    10.0120    25.5720 hc         1 QVM       0.043033
     43 H19         11.4350     7.3360    27.1180 hc         1 QVM       0.052200
     44 H20         11.2310     7.2870    25.3730 hc         1 QVM       0.052200
     45 H21         12.8690     5.4040    27.1430 h1         1 QVM       0.032700
     46 H22         10.6450     4.9780    26.8610 ho         1 QVM       0.441000
     47 H23         12.8390     5.5850    24.0820 hc         1 QVM       0.056200
     48 H24         13.5590     4.2620    24.9880 hc         1 QVM       0.056200
     49 H25         15.0640     5.7550    27.3140 hc         1 QVM       0.035867
     50 H26         15.6910     4.5110    26.2230 hc         1 QVM       0.035867
     51 H27         16.5150     6.0630    26.3660 hc         1 QVM       0.035867
     52 H28         15.6150     4.9470    23.5950 hc         1 QVM       0.035867
     53 H29         14.9380     6.4710    23.0060 hc         1 QVM       0.035867
     54 H30         16.4560     6.4620    23.9130 hc         1 QVM       0.035867
@<TRIPOS>BOND
     1     1     2 1   
     2     1    22 1   
     3     1    23 1   
     4     1    24 1   
     5     2    16 1   
     6     2    17 2   
     7     3    13 2   
     8     3    14 1   
     9     3    15 1   
    10     4     5 2   
    11     5     6 1   
    12     5    25 1   
    13     6     7 2   
    14     6    26 1   
    15     7     8 1   
    16     7    27 1   
    17     8     9 2   
    18     8    28 1   
    19     9    10 1   
    20     9    11 1   
    21    10    29 1   
    22    10    30 1   
    23    10    31 1   
    24    11    12 2   
    25    11    32 1   
    26    12    13 1   
    27    12    33 1   
    28    13    34 1   
    29    14    35 1   
    30    14    36 1   
    31    14    37 1   
    32    15    16 2   
    33    15    38 1   
    34    16    39 1   
    35    17    18 1   
    36    17    19 1   
    37    18    40 1   
    38    18    41 1   
    39    18    42 1   
    40    19    20 1   
    41    19    43 1   
    42    19    44 1   
    43    20    21 1   
    44    20    22 1   
    45    20    45 1   
    46    21    46 1   
    47    22    47 1   
    48    22    48 1   
    49    23    49 1   
    50    23    50 1   
    51    23    51 1   
    52    24    52 1   
    53    24    53 1   
    54    24    54 1   
@<TRIPOS>SUBSTRUCTURE
     1 QVM         1 TEMP              0 ****  ****    0 ROOT
