@<TRIPOS>MOLECULE
QVN
   33    33     1     0     0
SMALL
No Charge or Current Charge


@<TRIPOS>ATOM
      1 C10         21.7580    27.6390    33.7740 ca         1 QVN      -0.099500
      2 C13         24.1120    26.1180    33.5850 ca         1 QVN      -0.118500
      3 C02         19.3920    25.3220    28.0980 c3         1 QVN      -0.169400
      4 C03         18.4780    25.9590    29.1980 c3         1 QVN      -0.181700
      5 C04         18.8360    25.5400    30.6540 c3         1 QVN      -0.048400
      6 C05         20.1700    26.1040    31.1960 c3         1 QVN      -0.087400
      7 C06         20.3960    25.7850    32.6890 c3         1 QVN      -0.035100
      8 C07         22.1040    25.1410    28.1630 c          1 QVN       0.647000
      9 C08         16.9810    25.6670    28.9100 c          1 QVN       0.719000
     10 C09         21.7120    26.3510    33.2050 ca         1 QVN      -0.049300
     11 C11         22.9740    28.1630    34.2470 ca         1 QVN      -0.118500
     12 C12         24.1510    27.4020    34.1540 ca         1 QVN      -0.139000
     13 C14         22.8960    25.5940    33.1110 ca         1 QVN      -0.099500
     14 O01         20.8030    27.1960    27.5130 o          1 QVN      -0.606100
     15 O02         23.1350    25.7220    28.4960 o          1 QVN      -0.732000
     16 O03         22.0640    23.9260    27.9780 o          1 QVN      -0.732000
     17 O04         16.2410    26.6130    28.6850 o          1 QVN      -0.754500
     18 O05         16.5990    24.5060    28.9080 o          1 QVN      -0.754500
     19 H12         20.8510    28.2350    33.8480 ha         1 QVN       0.118000
     20 H15         25.0230    25.5280    33.5110 ha         1 QVN       0.094000
     21 H02         18.8650    25.4000    27.1390 hc         1 QVN       0.062200
     22 H01         19.5340    24.2580    28.3180 hc         1 QVN       0.062200
     23 H03         18.5930    27.0480    29.1370 hc         1 QVN       0.043700
     24 H04         18.0310    25.8870    31.3140 hc         1 QVN       0.024700
     25 H05         18.8470    24.4450    30.7290 hc         1 QVN       0.024700
     26 H06         21.0060    25.6870    30.6260 hc         1 QVN       0.059700
     27 H07         20.1910    27.1920    31.0550 hc         1 QVN       0.059700
     28 H08         19.5600    26.1880    33.2750 hc         1 QVN       0.030700
     29 H09         20.3730    24.6980    32.8330 hc         1 QVN       0.030700
     30 H13         23.0030    29.1570    34.6860 ha         1 QVN       0.094000
     31 H14         25.0920    27.8070    34.5200 ha         1 QVN       0.086000
     32 H16         22.8740    24.6000    32.6700 ha         1 QVN       0.118000
     33 C01         20.7580    26.0230    27.9040 c          1 QVN       0.451100
@<TRIPOS>BOND
     1     1    10 ar  
     2     1    11 ar  
     3     1    19 1   
     4     2    12 ar  
     5     2    13 ar  
     6     2    20 1   
     7     3     4 1   
     8     3    21 1   
     9     3    22 1   
    10     3    33 1   
    11     4     5 1   
    12     4     9 1   
    13     4    23 1   
    14     5     6 1   
    15     5    24 1   
    16     5    25 1   
    17     6     7 1   
    18     6    26 1   
    19     6    27 1   
    20     7    10 1   
    21     7    28 1   
    22     7    29 1   
    23     8    15 1   
    24     8    16 1   
    25     8    33 1   
    26     9    17 1   
    27     9    18 1   
    28    10    13 ar  
    29    11    12 ar  
    30    11    30 1   
    31    12    31 1   
    32    13    32 1   
    33    14    33 2   
@<TRIPOS>SUBSTRUCTURE
     1 QVN         1 TEMP              0 ****  ****    0 ROOT
