@<TRIPOS>MOLECULE
QVN
   33    33     1     0     0
SMALL
bcc


@<TRIPOS>ATOM
      1 C10         21.7770    27.6910    33.8810 ca         1 QVN      -0.117500
      2 C13         24.0020    26.1390    33.3300 ca         1 QVN      -0.136500
      3 C02         19.5750    25.1150    28.3840 c3         1 QVN      -0.169400
      4 C03         18.5250    25.8870    29.1770 c3         1 QVN      -0.181700
      5 C04         18.7530    25.7530    30.6850 c3         1 QVN      -0.048400
      6 C05         20.1110    26.2270    31.1810 c3         1 QVN      -0.087400
      7 C06         20.2610    26.0600    32.6930 c3         1 QVN      -0.035100
      8 C07         22.1440    24.9840    28.1020 c          1 QVN       0.857600
      9 C08         17.0670    25.4990    28.7990 c          1 QVN       0.929600
     10 C09         21.6120    26.4980    33.1830 ca         1 QVN      -0.049300
     11 C11         23.0350    28.1070    34.3020 ca         1 QVN      -0.136500
     12 C12         24.1530    27.3310    34.0280 ca         1 QVN      -0.157000
     13 C14         22.7450    25.7300    32.9120 ca         1 QVN      -0.117500
     14 O01         20.9260    27.0400    27.9550 o          1 QVN      -0.606100
     15 O02         23.0410    25.2610    28.9160 o          1 QVN      -0.837300
     16 O03         22.1220    24.0990    27.2290 o          1 QVN      -0.837300
     17 O04         16.1770    25.9000    29.5760 o          1 QVN      -0.859800
     18 O05         16.8860    24.8540    27.7470 o          1 QVN      -0.859800
     19 H12         20.9100    28.3030    34.1020 ha         1 QVN       0.136000
     20 H15         24.8680    25.5250    33.1130 ha         1 QVN       0.112000
     21 H02         19.1780    24.8860    27.3900 hc         1 QVN       0.062200
     22 H01         19.7690    24.1420    28.8470 hc         1 QVN       0.062200
     23 H03         18.6230    26.9500    28.9180 hc         1 QVN       0.043700
     24 H04         17.9720    26.3070    31.2080 hc         1 QVN       0.024700
     25 H05         18.6240    24.7010    30.9720 hc         1 QVN       0.024700
     26 H06         20.9190    25.6720    30.6960 hc         1 QVN       0.059700
     27 H07         20.2600    27.2790    30.9140 hc         1 QVN       0.059700
     28 H08         19.4780    26.6280    33.2040 hc         1 QVN       0.030700
     29 H09         20.1000    25.0090    32.9500 hc         1 QVN       0.030700
     30 H13         23.1390    29.0360    34.8470 ha         1 QVN       0.112000
     31 H14         25.1340    27.6510    34.3570 ha         1 QVN       0.104000
     32 H16         22.6390    24.7950    32.3720 ha         1 QVN       0.136000
     33 C01         20.8780    25.8420    28.1570 c          1 QVN       0.451100
@<TRIPOS>BOND
     1     1    10 ar  
     2     1    11 ar  
     3     1    19 1   
     4     2    12 ar  
     5     2    13 ar  
     6     2    20 1   
     7     3     4 1   
     8     3    21 1   
     9     3    22 1   
    10     3    33 1   
    11     4     5 1   
    12     4     9 1   
    13     4    23 1   
    14     5     6 1   
    15     5    24 1   
    16     5    25 1   
    17     6     7 1   
    18     6    26 1   
    19     6    27 1   
    20     7    10 1   
    21     7    28 1   
    22     7    29 1   
    23     8    15 1   
    24     8    16 1   
    25     8    33 1   
    26     9    17 1   
    27     9    18 1   
    28    10    13 ar  
    29    11    12 ar  
    30    11    30 1   
    31    12    31 1   
    32    13    32 1   
    33    14    33 2   
@<TRIPOS>SUBSTRUCTURE
     1 QVN         1 TEMP              0 ****  ****    0 ROOT
