@<TRIPOS>MOLECULE
QVP
   39    41     1     0     0
SMALL
No Charge or Current Charge


@<TRIPOS>ATOM
      1 C10         15.5310    -9.3460    -1.5880 ca         1 QVP      -0.074500
      2 C13         17.9720   -13.2030     1.0880 c3         1 QVP      -0.095700
      3 C15         17.6520   -14.2360     3.4290 c3         1 QVP      -0.034100
      4 C17         18.7950   -14.0470     5.6930 ca         1 QVP      -0.106500
      5 C20         16.3730   -13.3530     6.9380 ca         1 QVP      -0.112500
      6 C21         16.4060   -13.6110     5.5560 ca         1 QVP      -0.106500
      7 O01         21.2930    -9.4110    -1.6860 o          1 QVP      -0.699000
      8 C03         19.2120   -10.1110    -0.9280 cc         1 QVP      -0.187600
      9 C04         17.8240   -10.0960    -0.8760 cd         1 QVP       0.282500
     10 C05         16.8850    -9.0300    -1.3210 ca         1 QVP      -0.062500
     11 C06         17.2600    -7.6650    -1.3380 ca         1 QVP      -0.074500
     12 C07         16.3370    -6.6650    -1.6890 ca         1 QVP      -0.129500
     13 C08         15.0130    -7.0050    -2.0020 ca         1 QVP      -0.130000
     14 C09         14.6080    -8.3460    -1.9420 ca         1 QVP      -0.129500
     15 N11         17.2830   -11.1730    -0.1750 nd         1 QVP      -0.658000
     16 C12         18.2430   -11.9520     0.2950 cc         1 QVP       0.355700
     17 C14         17.9260   -12.9550     2.6130 c3         1 QVP      -0.075400
     18 C16         17.6160   -13.9610     4.9270 ca         1 QVP      -0.068300
     19 C18         18.7630   -13.7890     7.0750 ca         1 QVP      -0.112500
     20 C19         17.5520   -13.4420     7.6980 ca         1 QVP      -0.120000
     21 S22         19.8710   -11.3960     0.0560 ss         1 QVP      -0.032400
     22 O23         19.5930    -8.6530    -2.7290 o          1 QVP      -0.699000
     23 H101        15.1910   -10.3790    -1.5420 ha         1 QVP       0.121500
     24 H131        17.0210   -13.6430     0.7650 hc         1 QVP       0.046700
     25 H132        18.7480   -13.9460     0.8660 hc         1 QVP       0.046700
     26 H151        16.7000   -14.6740     3.1040 hc         1 QVP       0.042700
     27 H152        18.4240   -14.9810     3.2020 hc         1 QVP       0.042700
     28 H211        15.4890   -13.5370     4.9740 ha         1 QVP       0.112500
     29 H061        18.2620    -7.3660    -1.0450 ha         1 QVP       0.121500
     30 H071        16.6470    -5.6220    -1.7030 ha         1 QVP       0.094500
     31 H081        14.2980    -6.2300    -2.2710 ha         1 QVP       0.089000
     32 H091        13.5780    -8.6130    -2.1640 ha         1 QVP       0.094500
     33 H142        18.8800   -12.5210     2.9370 hc         1 QVP       0.052700
     34 H141        17.1480   -12.2140     2.8340 hc         1 QVP       0.052700
     35 H181        19.6760   -13.8570     7.6620 ha         1 QVP       0.106000
     36 H191        17.5270   -13.2420     8.7670 ha         1 QVP       0.104000
     37 H171        19.7370   -14.3130     5.2180 ha         1 QVP       0.112500
     38 C02         20.0830    -9.3090    -1.8230 c          1 QVP       0.724600
     39 H201        15.4360   -13.0830     7.4180 ha         1 QVP       0.106000
@<TRIPOS>BOND
     1     1    10 ar  
     2     1    14 ar  
     3     1    23 1   
     4     2    16 1   
     5     2    17 1   
     6     2    24 1   
     7     2    25 1   
     8     3    17 1   
     9     3    18 1   
    10     3    26 1   
    11     3    27 1   
    12     4    18 ar  
    13     4    19 ar  
    14     4    37 1   
    15     5     6 ar  
    16     5    20 ar  
    17     5    39 1   
    18     6    18 ar  
    19     6    28 1   
    20     7    38 1   
    21     8     9 2   
    22     8    21 1   
    23     8    38 1   
    24     9    10 1   
    25     9    15 1   
    26    10    11 ar  
    27    11    12 ar  
    28    11    29 1   
    29    12    13 ar  
    30    12    30 1   
    31    13    14 ar  
    32    13    31 1   
    33    14    32 1   
    34    15    16 2   
    35    16    21 1   
    36    17    33 1   
    37    17    34 1   
    38    19    20 ar  
    39    19    35 1   
    40    20    36 1   
    41    22    38 1   
@<TRIPOS>SUBSTRUCTURE
     1 QVP         1 TEMP              0 ****  ****    0 ROOT
