@<TRIPOS>MOLECULE
QVP
   39    41     1     0     0
SMALL
abcg2


@<TRIPOS>ATOM
      1 C10         15.7440    -9.4170    -2.1850 ca         1 QVP      -0.074500
      2 C13         17.5650   -13.0870     1.2150 c3         1 QVP      -0.095700
      3 C15         17.3550   -14.1630     3.5130 c3         1 QVP      -0.034100
      4 C17         18.8070   -14.4100     5.5610 ca         1 QVP      -0.106500
      5 C20         16.8900   -13.2080     7.1680 ca         1 QVP      -0.112500
      6 C21         16.6450   -13.4020     5.8120 ca         1 QVP      -0.106500
      7 O01         21.2760    -9.2090    -0.7310 o          1 QVP      -0.699000
      8 C03         19.0620    -9.9740    -0.6570 cc         1 QVP      -0.187600
      9 C04         17.6890    -9.9890    -0.7450 cd         1 QVP       0.282500
     10 C05         16.8140    -8.9920    -1.3920 ca         1 QVP      -0.062500
     11 C06         17.0020    -7.6210    -1.1970 ca         1 QVP      -0.074500
     12 C07         16.1480    -6.6990    -1.7890 ca         1 QVP      -0.129500
     13 C08         15.0940    -7.1310    -2.5890 ca         1 QVP      -0.130000
     14 C09         14.8950    -8.4950    -2.7850 ca         1 QVP      -0.129500
     15 N11         17.0770   -11.0660    -0.1270 nd         1 QVP      -0.658000
     16 C12         17.9380   -11.8670     0.4380 cc         1 QVP       0.355700
     17 C14         17.7730   -12.9160     2.7260 c3         1 QVP      -0.075400
     18 C16         17.6000   -14.0050     4.9900 ca         1 QVP      -0.068300
     19 C18         19.0580   -14.2190     6.9160 ca         1 QVP      -0.112500
     20 C19         18.0990   -13.6150     7.7250 ca         1 QVP      -0.120000
     21 S22         19.5810   -11.3520     0.2600 ss         1 QVP      -0.032400
     22 O23         19.8080    -8.3130    -2.1770 o          1 QVP      -0.699000
     23 H101        15.5850   -10.4770    -2.3350 ha         1 QVP       0.121500
     24 H131        16.5150   -13.3030     1.0060 hc         1 QVP       0.046700
     25 H132        18.1530   -13.9410     0.8680 hc         1 QVP       0.046700
     26 H151        16.2950   -14.3610     3.3310 hc         1 QVP       0.042700
     27 H152        17.9130   -15.0240     3.1370 hc         1 QVP       0.042700
     28 H211        15.7010   -13.0840     5.3850 ha         1 QVP       0.112500
     29 H061        17.8190    -7.2820    -0.5760 ha         1 QVP       0.121500
     30 H071        16.3040    -5.6400    -1.6220 ha         1 QVP       0.094500
     31 H081        14.4310    -6.4110    -3.0520 ha         1 QVP       0.089000
     32 H091        14.0770    -8.8410    -3.4050 ha         1 QVP       0.094500
     33 H142        18.8250   -12.6990     2.9260 hc         1 QVP       0.052700
     34 H141        17.1990   -12.0530     3.0750 hc         1 QVP       0.052700
     35 H181        20.0000   -14.5430     7.3410 ha         1 QVP       0.106000
     36 H191        18.2910   -13.4660     8.7800 ha         1 QVP       0.104000
     37 H171        19.5580   -14.8820     4.9360 ha         1 QVP       0.112500
     38 C02         20.1320    -9.0770    -1.2400 c          1 QVP       0.724600
     39 H201        16.1360   -12.7410     7.7900 ha         1 QVP       0.106000
@<TRIPOS>BOND
     1     1    10 ar  
     2     1    14 ar  
     3     1    23 1   
     4     2    16 1   
     5     2    17 1   
     6     2    24 1   
     7     2    25 1   
     8     3    17 1   
     9     3    18 1   
    10     3    26 1   
    11     3    27 1   
    12     4    18 ar  
    13     4    19 ar  
    14     4    37 1   
    15     5     6 ar  
    16     5    20 ar  
    17     5    39 1   
    18     6    18 ar  
    19     6    28 1   
    20     7    38 1   
    21     8     9 2   
    22     8    21 1   
    23     8    38 1   
    24     9    10 1   
    25     9    15 1   
    26    10    11 ar  
    27    11    12 ar  
    28    11    29 1   
    29    12    13 ar  
    30    12    30 1   
    31    13    14 ar  
    32    13    31 1   
    33    14    32 1   
    34    15    16 2   
    35    16    21 1   
    36    17    33 1   
    37    17    34 1   
    38    19    20 ar  
    39    19    35 1   
    40    20    36 1   
    41    22    38 1   
@<TRIPOS>SUBSTRUCTURE
     1 QVP         1 TEMP              0 ****  ****    0 ROOT
