@<TRIPOS>MOLECULE
QVQ
   21    21     1     0     0
SMALL
bcc


@<TRIPOS>ATOM
      1 C01         16.9590   -25.2930     8.0010 c          1 QVQ       0.934600
      2 C02         22.4800   -25.0290     8.8890 c          1 QVQ       0.854600
      3 C03         19.4180   -24.4830     8.0620 c5         1 QVQ      -0.029400
      4 C04         18.1750   -24.7770     7.2130 c5         1 QVQ      -0.188700
      5 C05         18.7010   -25.6790     6.1010 c5         1 QVQ      -0.053400
      6 C06         20.0380   -25.0400     5.7450 c5         1 QVQ      -0.073400
      7 C07         20.6300   -24.5770     7.0850 c5         1 QVQ      -0.177700
      8 C08         21.6430   -25.5310     7.6680 c          1 QVQ       0.440100
      9 O01         16.8150   -24.8490     9.1590 o          1 QVQ      -0.860300
     10 O02         16.1970   -26.0900     7.4130 o          1 QVQ      -0.860300
     11 O03         23.2980   -25.8390     9.3460 o          1 QVQ      -0.821300
     12 O04         22.2410   -23.8680     9.2660 o          1 QVQ      -0.821300
     13 O05         21.7990   -26.6540     7.2440 o          1 QVQ      -0.580100
     14 H04         19.5010   -25.2240     8.8630 hc         1 QVQ       0.048200
     15 H03         19.3770   -23.5120     8.5510 hc         1 QVQ       0.048200
     16 H05         17.8670   -23.8320     6.7400 hc         1 QVQ       0.007700
     17 H07         18.0260   -25.7470     5.2470 hc         1 QVQ       0.031200
     18 H06         18.8520   -26.6970     6.4760 hc         1 QVQ       0.031200
     19 H09         20.7030   -25.7020     5.1900 hc         1 QVQ       0.007700
     20 H08         19.8620   -24.1660     5.1130 hc         1 QVQ       0.007700
     21 H10         21.1030   -23.5990     6.9940 hc         1 QVQ       0.053700
@<TRIPOS>BOND
     1     1     4 1   
     2     1     9 1   
     3     1    10 1   
     4     2     8 1   
     5     2    11 1   
     6     2    12 1   
     7     3     4 1   
     8     3     7 1   
     9     3    14 1   
    10     3    15 1   
    11     4     5 1   
    12     4    16 1   
    13     5     6 1   
    14     5    17 1   
    15     5    18 1   
    16     6     7 1   
    17     6    19 1   
    18     6    20 1   
    19     7     8 1   
    20     7    21 1   
    21     8    13 2   
@<TRIPOS>SUBSTRUCTURE
     1 QVQ         1 TEMP              0 ****  ****    0 ROOT
