@<TRIPOS>MOLECULE
QVQ
   21    21     1     0     0
SMALL
No Charge or Current Charge


@<TRIPOS>ATOM
      1 C01         16.7410   -25.1560     7.7570 c          1 QVQ       0.724000
      2 C02         22.9890   -25.0750     8.4020 c          1 QVQ       0.644000
      3 C03         19.2380   -24.8010     8.2790 c5         1 QVQ      -0.029400
      4 C04         18.1040   -24.6150     7.2310 c5         1 QVQ      -0.188700
      5 C05         18.6570   -25.4840     6.0690 c5         1 QVQ      -0.053400
      6 C06         20.0820   -24.8890     5.9300 c5         1 QVQ      -0.073400
      7 C07         20.5360   -24.6470     7.4130 c5         1 QVQ      -0.177700
      8 C08         21.6020   -25.7020     7.8460 c          1 QVQ       0.440100
      9 O01         15.7860   -24.3940     7.7810 o          1 QVQ      -0.755000
     10 O02         16.6420   -26.3160     8.1300 o          1 QVQ      -0.755000
     11 O03         24.0460   -25.4520     7.9010 o          1 QVQ      -0.716000
     12 O04         22.9380   -24.2560     9.3180 o          1 QVQ      -0.716000
     13 O05         21.4250   -26.9240     7.7800 o          1 QVQ      -0.580100
     14 H04         19.1840   -25.7870     8.7560 hc         1 QVQ       0.048200
     15 H03         19.1850   -24.0590     9.0840 hc         1 QVQ       0.048200
     16 H05         18.0000   -23.5640     6.9350 hc         1 QVQ       0.007700
     17 H07         18.0690   -25.3800     5.1500 hc         1 QVQ       0.031200
     18 H06         18.6910   -26.5510     6.3220 hc         1 QVQ       0.031200
     19 H09         20.7560   -25.5510     5.3750 hc         1 QVQ       0.007700
     20 H08         20.0500   -23.9420     5.3800 hc         1 QVQ       0.007700
     21 H10         20.9630   -23.6440     7.5260 hc         1 QVQ       0.053700
@<TRIPOS>BOND
     1     1     4 1   
     2     1     9 1   
     3     1    10 1   
     4     2     8 1   
     5     2    11 1   
     6     2    12 1   
     7     3     4 1   
     8     3     7 1   
     9     3    14 1   
    10     3    15 1   
    11     4     5 1   
    12     4    16 1   
    13     5     6 1   
    14     5    17 1   
    15     5    18 1   
    16     6     7 1   
    17     6    19 1   
    18     6    20 1   
    19     7     8 1   
    20     7    21 1   
    21     8    13 2   
@<TRIPOS>SUBSTRUCTURE
     1 QVQ         1 TEMP              0 ****  ****    0 ROOT
