@<TRIPOS>MOLECULE
QVR
   35    37     1     0     0
SMALL
No Charge or Current Charge


@<TRIPOS>ATOM
      1 C24          5.3540    -2.5320    -0.9520 c3         1 QVR      -0.064900
      2 C28          4.5380    -1.2570    -0.9540 c2         1 QVR      -0.182200
      3 C31          3.2630    -1.1580    -0.5380 c2         1 QVR      -0.257200
      4 C36          2.5520     0.1860    -0.5940 c5         1 QVR       0.170500
      5 C38          0.3620     0.9640    -0.2920 c5         1 QVR       0.320300
      6 C39          1.3290     1.8260     0.6110 c5         1 QVR       0.136300
      7 C40          2.5030     0.8290     0.8230 c5         1 QVR       0.097300
      8 C49         -0.8320    -0.1040     1.6980 cc         1 QVR       0.409700
      9 C50         -2.7450    -0.5120     0.7990 ca         1 QVR      -0.100600
     10 C51         -1.9940     0.0570    -0.1970 ca         1 QVR       0.124500
     11 C53         -3.7570    -0.1400    -1.6410 ca         1 QVR       0.182900
     12 C55         -4.0690    -0.8940     0.4970 ca         1 QVR       0.452900
     13 N47         -0.7780     0.3220     0.3660 na         1 QVR      -0.307300
     14 N48         -2.0370    -0.6260     1.9990 nd         1 QVR      -0.557100
     15 N52         -2.4780     0.2600    -1.4380 nb         1 QVR      -0.220000
     16 N54         -4.5820    -0.7130    -0.7300 nb         1 QVR      -0.304000
     17 N57         -4.8930    -1.4700     1.4120 nv         1 QVR      -1.065900
     18 O37          1.1720    -0.0790    -0.8940 os         1 QVR      -0.440000
     19 O41          1.8360     2.9990    -0.0430 oh         1 QVR      -0.704000
     20 O42          3.7140     1.5170     1.1930 oh         1 QVR      -0.709000
     21 H1           5.6840    -2.7860    -1.9660 hc         1 QVR       0.044033
     22 H30          6.2480    -2.4240    -0.3270 hc         1 QVR       0.044033
     23 H29          4.7780    -3.3820    -0.5660 hc         1 QVR       0.044033
     24 H28          5.0740    -0.3840    -1.3350 ha         1 QVR       0.185000
     25 H31          2.7360    -2.0370    -0.1650 ha         1 QVR       0.173000
     26 H61          2.9650     0.8680    -1.3520 h1         1 QVR       0.084700
     27 H62         -0.0640     1.6060    -1.0740 h2         1 QVR       0.128700
     28 H44          0.8570     2.0990     1.5660 h1         1 QVR       0.076700
     29 H43          2.2400     0.0760     1.5800 h1         1 QVR       0.053700
     30 H58          0.0070    -0.0130     2.3770 h5         1 QVR       0.072800
     31 H56         -4.1640     0.0140    -2.6390 h5         1 QVR       0.047100
     32 H59         -4.4550    -1.8140     2.2630 hn         1 QVR       0.507000
     33 H60         -5.6990    -1.9890     1.0730 hn         1 QVR       0.507000
     34 H46          2.7850     3.0150     0.2470 ho         1 QVR       0.530000
     35 H45          4.4030     0.8250     1.3450 ho         1 QVR       0.520000
@<TRIPOS>BOND
     1     1     2 1   
     2     1    21 1   
     3     1    22 1   
     4     1    23 1   
     5     2     3 2   
     6     2    24 1   
     7     3     4 1   
     8     3    25 1   
     9     4     7 1   
    10     4    18 1   
    11     4    26 1   
    12     5     6 1   
    13     5    13 1   
    14     5    18 1   
    15     5    27 1   
    16     6     7 1   
    17     6    19 1   
    18     6    28 1   
    19     7    20 1   
    20     7    29 1   
    21     8    13 1   
    22     8    14 2   
    23     8    30 1   
    24     9    10 ar  
    25     9    12 ar  
    26     9    14 1   
    27    10    13 1   
    28    10    15 ar  
    29    11    15 ar  
    30    11    16 ar  
    31    11    31 1   
    32    12    16 ar  
    33    12    17 1   
    34    17    32 1   
    35    17    33 1   
    36    19    34 1   
    37    20    35 1   
@<TRIPOS>SUBSTRUCTURE
     1 QVR         1 TEMP              0 ****  ****    0 ROOT
