@<TRIPOS>MOLECULE
QVR
   35    37     1     0     0
SMALL
abcg2


@<TRIPOS>ATOM
      1 C24          4.5250    -2.9580    -0.1760 c3         1 QVR      -0.064900
      2 C28          3.6270    -1.8110    -0.5060 c2         1 QVR      -0.182200
      3 C31          3.7780    -0.5790    -0.0310 c2         1 QVR      -0.257200
      4 C36          2.9120     0.6000    -0.3180 c5         1 QVR       0.170500
      5 C38          0.6640     0.9320    -0.8160 c5         1 QVR       0.320300
      6 C39          1.0380     1.9110     0.2970 c5         1 QVR       0.136300
      7 C40          2.2280     1.1920     0.9270 c5         1 QVR       0.097300
      8 C49         -0.1080    -1.2890     0.1640 cc         1 QVR       0.409700
      9 C50         -2.2010    -1.0170     0.1650 ca         1 QVR      -0.100600
     10 C51         -1.6680     0.1440    -0.3720 ca         1 QVR       0.124500
     11 C53         -3.6500     1.0420    -0.6530 ca         1 QVR       0.182900
     12 C55         -3.6040    -1.0680     0.2660 ca         1 QVR       0.452900
     13 N47         -0.3180    -0.0460    -0.3680 na         1 QVR      -0.307300
     14 N48         -1.2080    -1.9010     0.4920 nd         1 QVR      -0.557100
     15 N52         -2.3470     1.2090    -0.7950 nb         1 QVR      -0.220000
     16 N54         -4.3010    -0.0080    -0.1590 nb         1 QVR      -0.304000
     17 N57         -4.2530    -2.1210     0.7630 nv         1 QVR      -1.065900
     18 O37          1.8360     0.2710    -1.1900 os         1 QVR      -0.440000
     19 O41          1.4170     3.1110    -0.3210 oh         1 QVR      -0.704000
     20 O42          3.0260     2.0770     1.6540 oh         1 QVR      -0.709000
     21 H1           3.9700    -3.7610     0.3120 hc         1 QVR       0.044033
     22 H30          4.9580    -3.3870    -1.0820 hc         1 QVR       0.044033
     23 H29          5.3410    -2.6620     0.4830 hc         1 QVR       0.044033
     24 H28          2.8090    -2.0270    -1.1860 ha         1 QVR       0.185000
     25 H31          4.6120    -0.3580     0.6320 ha         1 QVR       0.173000
     26 H61          3.5250     1.3870    -0.7780 h1         1 QVR       0.084700
     27 H62          0.2220     1.4540    -1.6690 h2         1 QVR       0.128700
     28 H44          0.2140     2.0570     1.0060 h1         1 QVR       0.076700
     29 H43          1.8540     0.3750     1.5570 h1         1 QVR       0.053700
     30 H58          0.8830    -1.7010     0.2810 h5         1 QVR       0.072800
     31 H56         -4.2760     1.8660    -0.9790 h5         1 QVR       0.047100
     32 H59         -3.7580    -2.9300     1.0940 hn         1 QVR       0.507000
     33 H60         -5.2570    -2.1220     0.8150 hn         1 QVR       0.507000
     34 H46          1.8240     3.6810     0.3400 ho         1 QVR       0.530000
     35 H45          3.5370     1.5850     2.3020 ho         1 QVR       0.520000
@<TRIPOS>BOND
     1     1     2 1   
     2     1    21 1   
     3     1    22 1   
     4     1    23 1   
     5     2     3 2   
     6     2    24 1   
     7     3     4 1   
     8     3    25 1   
     9     4     7 1   
    10     4    18 1   
    11     4    26 1   
    12     5     6 1   
    13     5    13 1   
    14     5    18 1   
    15     5    27 1   
    16     6     7 1   
    17     6    19 1   
    18     6    28 1   
    19     7    20 1   
    20     7    29 1   
    21     8    13 1   
    22     8    14 2   
    23     8    30 1   
    24     9    10 ar  
    25     9    12 ar  
    26     9    14 1   
    27    10    13 1   
    28    10    15 ar  
    29    11    15 ar  
    30    11    16 ar  
    31    11    31 1   
    32    12    16 ar  
    33    12    17 1   
    34    17    32 1   
    35    17    33 1   
    36    19    34 1   
    37    20    35 1   
@<TRIPOS>SUBSTRUCTURE
     1 QVR         1 TEMP              0 ****  ****    0 ROOT
