@<TRIPOS>MOLECULE
QVT
   20    19     1     0     0
SMALL
No Charge or Current Charge


@<TRIPOS>ATOM
      1 C01         17.3690   -25.3250     7.7850 c          1 QVT       0.717000
      2 C02         22.4630   -25.2780     8.8160 c          1 QVT       0.637000
      3 C04         19.2990   -24.5800     6.2950 c3         1 QVT      -0.050400
      4 C05         18.8720   -25.5260     7.4550 c3         1 QVT      -0.180700
      5 C06         19.7500   -25.4020     8.7450 c3         1 QVT      -0.167400
      6 C07         21.0990   -26.1570     8.6800 c          1 QVT       0.433100
      7 O01         16.6050   -26.2600     7.5940 o          1 QVT      -0.757500
      8 O02         17.0060   -24.2480     8.2340 o          1 QVT      -0.757500
      9 O03         22.4390   -24.2420     9.4760 o          1 QVT      -0.726000
     10 O04         23.4920   -25.7020     8.2910 o          1 QVT      -0.726000
     11 O05         21.1170   -27.3890     8.5850 o          1 QVT      -0.595100
     12 H04         20.8000   -24.3020     4.7420 hc         1 QVT       0.014700
     13 H05         21.4860   -24.6740     6.3280 hc         1 QVT       0.014700
     14 H03         20.7190   -25.9630     5.3660 hc         1 QVT       0.014700
     15 H06         19.3050   -23.5410     6.6450 hc         1 QVT       0.021200
     16 H07         18.5360   -24.6370     5.5080 hc         1 QVT       0.021200
     17 H08         18.9680   -26.5540     7.0850 hc         1 QVT       0.043700
     18 H10         19.9140   -24.3420     8.9680 hc         1 QVT       0.065700
     19 H09         19.1860   -25.8410     9.5770 hc         1 QVT       0.065700
     20 C03         20.6600   -24.9040     5.6480 c3         1 QVT      -0.088100
@<TRIPOS>BOND
     1     1     4 1   
     2     1     7 1   
     3     1     8 1   
     4     2     6 1   
     5     2     9 1   
     6     2    10 1   
     7     3     4 1   
     8     3    15 1   
     9     3    16 1   
    10     3    20 1   
    11     4     5 1   
    12     4    17 1   
    13     5     6 1   
    14     5    18 1   
    15     5    19 1   
    16     6    11 2   
    17    12    20 1   
    18    13    20 1   
    19    14    20 1   
@<TRIPOS>SUBSTRUCTURE
     1 QVT         1 TEMP              0 ****  ****    0 ROOT
