@<TRIPOS>MOLECULE
QVT
   20    19     1     0     0
SMALL
bcc


@<TRIPOS>ATOM
      1 C01         17.4250   -25.3300     7.9380 c          1 QVT       0.927600
      2 C02         22.4710   -25.3440     9.1420 c          1 QVT       0.847600
      3 C04         19.1450   -24.7720     6.1840 c3         1 QVT      -0.050400
      4 C05         18.8930   -25.5480     7.4840 c3         1 QVT      -0.180700
      5 C06         19.9200   -25.1870     8.5500 c3         1 QVT      -0.167400
      6 C07         21.1920   -25.9950     8.5380 c          1 QVT       0.433100
      7 O01         16.5520   -25.6630     7.1100 o          1 QVT      -0.862800
      8 O02         17.2180   -24.8480     9.0710 o          1 QVT      -0.862800
      9 O03         22.2770   -24.3480     9.8610 o          1 QVT      -0.831300
     10 O04         23.5440   -25.8940     8.8500 o          1 QVT      -0.831300
     11 O05         21.2280   -27.1380     8.1360 o          1 QVT      -0.595100
     12 H04         20.6130   -24.4110     4.6360 hc         1 QVT       0.014700
     13 H05         21.3220   -24.5750     6.2300 hc         1 QVT       0.014700
     14 H03         20.7450   -26.0040     5.3750 hc         1 QVT       0.014700
     15 H06         18.9800   -23.7050     6.3730 hc         1 QVT       0.021200
     16 H07         18.3960   -25.0710     5.4490 hc         1 QVT       0.021200
     17 H08         18.9870   -26.6160     7.2530 hc         1 QVT       0.043700
     18 H10         20.1590   -24.1220     8.5190 hc         1 QVT       0.065700
     19 H09         19.4860   -25.3410     9.5440 hc         1 QVT       0.065700
     20 C03         20.5310   -24.9540     5.5790 c3         1 QVT      -0.088100
@<TRIPOS>BOND
     1     1     4 1   
     2     1     7 1   
     3     1     8 1   
     4     2     6 1   
     5     2     9 1   
     6     2    10 1   
     7     3     4 1   
     8     3    15 1   
     9     3    16 1   
    10     3    20 1   
    11     4     5 1   
    12     4    17 1   
    13     5     6 1   
    14     5    18 1   
    15     5    19 1   
    16     6    11 2   
    17    12    20 1   
    18    13    20 1   
    19    14    20 1   
@<TRIPOS>SUBSTRUCTURE
     1 QVT         1 TEMP              0 ****  ****    0 ROOT
