@<TRIPOS>MOLECULE
QVU
   39    42     1     0     0
SMALL
abcg2


@<TRIPOS>ATOM
      1 N1         -19.8580     5.2090    26.2790 ns         1 QVU      -0.171000
      2 N3         -16.6400     9.1780    25.5030 nb         1 QVU      -0.660000
      3 C4         -22.5620     6.5890    27.3470 c6         1 QVU      -0.081400
      4 C5         -21.8010     5.3020    27.7280 c6         1 QVU      -0.077400
      5 C6         -20.3040     5.5250    27.5270 c          1 QVU       0.595100
      6 C7         -18.5270     5.4020    25.8430 ca         1 QVU      -0.079000
      7 C8         -17.7730     4.3230    25.4510 ca         1 QVU       0.320900
      8 C10        -16.6220     6.7830    25.2990 ca         1 QVU      -0.153000
      9 C13        -18.6160     7.9110    26.0650 ca         1 QVU      -0.134000
     10 C15        -22.1060     4.8980    29.1500 ca         1 QVU      -0.144300
     11 C17        -22.1460     3.1880    30.8680 ca         1 QVU       0.070000
     12 CL1        -21.8700     1.5250    31.3190 cl         1 QVU      -0.185000
     13 C          -22.5990     4.1340    31.7870 ca         1 QVU       0.182000
     14 CL         -22.9110     3.6960    33.4460 cl         1 QVU      -0.184000
     15 C16        -21.9080     3.5890    29.5600 ca         1 QVU      -0.041000
     16 C2         -22.5760     5.8510    30.0770 ca         1 QVU       0.361000
     17 C1         -22.8140     5.4440    31.3990 ca         1 QVU      -0.182000
     18 C3         -22.3940     7.6590    28.4160 c6         1 QVU       0.218800
     19 N          -22.8460     7.1410    29.6970 nu         1 QVU      -0.960200
     20 O          -19.5750     5.9990    28.3880 o          1 QVU      -0.561100
     21 C14        -17.9590     6.7000    25.7590 ca         1 QVU       0.024000
     22 C12        -17.9320     9.0890    25.9230 ca         1 QVU       0.336900
     23 C11        -16.0200     8.0600    25.2020 ca         1 QVU       0.376900
     24 C9         -15.9470     5.5980    24.9320 ca         1 QVU       0.373900
     25 N2         -16.5000     4.4080    24.9900 nb         1 QVU      -0.652000
     26 H1         -20.4770     4.6930    25.6720 hn         1 QVU       0.157000
     27 H3         -23.6200     6.3430    27.2420 hc         1 QVU       0.060200
     28 H4         -22.1190     4.5030    27.0550 hc         1 QVU       0.063700
     29 H5         -18.2020     3.3280    25.5000 h4         1 QVU       0.024100
     30 H6         -19.6420     7.9180    26.4020 ha         1 QVU       0.127000
     31 H7         -21.5510     2.8580    28.8450 ha         1 QVU       0.124000
     32 H8         -23.1710     6.1630    32.1250 ha         1 QVU       0.131000
     33 H9         -21.3470     7.9790    28.4630 h1         1 QVU       0.049700
     34 H10        -22.9980     8.5320    28.1690 h1         1 QVU       0.049700
     35 H11        -22.9640     7.8110    30.4400 hn         1 QVU       0.485000
     36 H12        -18.4170    10.0310    26.1510 h4         1 QVU       0.022100
     37 H13        -14.9920     8.1320    24.8570 h4         1 QVU       0.025100
     38 H14        -14.9220     5.6590    24.5760 h4         1 QVU       0.027100
     39 H2         -22.2110     6.9660    26.3860 hc         1 QVU       0.060200
@<TRIPOS>BOND
     1     1     5 1   
     2     1     6 1   
     3     1    26 1   
     4     2    22 ar  
     5     2    23 ar  
     6     3     4 1   
     7     3    18 1   
     8     3    27 1   
     9     3    39 1   
    10     4     5 1   
    11     4    10 1   
    12     4    28 1   
    13     5    20 2   
    14     6     7 ar  
    15     6    21 ar  
    16     7    25 ar  
    17     7    29 1   
    18     8    21 ar  
    19     8    23 ar  
    20     8    24 ar  
    21     9    21 ar  
    22     9    22 ar  
    23     9    30 1   
    24    10    15 ar  
    25    10    16 ar  
    26    11    12 1   
    27    11    13 ar  
    28    11    15 ar  
    29    13    14 1   
    30    13    17 ar  
    31    15    31 1   
    32    16    17 ar  
    33    16    19 1   
    34    17    32 1   
    35    18    19 1   
    36    18    33 1   
    37    18    34 1   
    38    19    35 1   
    39    22    36 1   
    40    23    37 1   
    41    24    25 ar  
    42    24    38 1   
@<TRIPOS>SUBSTRUCTURE
     1 QVU         1 TEMP              0 ****  ****    0 ROOT
