@<TRIPOS>MOLECULE
QVU
   39    42     1     0     0
SMALL
No Charge or Current Charge


@<TRIPOS>ATOM
      1 N1         -19.8300     5.3020    26.2790 ns         1 QVU      -0.171000
      2 N3         -16.3090     9.0960    25.6980 nb         1 QVU      -0.660000
      3 C4         -22.7000     6.4900    27.2990 c6         1 QVU      -0.081400
      4 C5         -21.8070     5.3060    27.7720 c6         1 QVU      -0.077400
      5 C6         -20.3060     5.6100    27.5440 c          1 QVU       0.595100
      6 C7         -18.5290     5.4730    25.7300 ca         1 QVU      -0.079000
      7 C8         -17.9010     4.3640    25.1250 ca         1 QVU       0.320900
      8 C10        -16.5360     6.7390    25.1960 ca         1 QVU      -0.153000
      9 C13        -18.3550     7.9130    26.2480 ca         1 QVU      -0.134000
     10 C15        -22.0970     4.9090    29.2330 ca         1 QVU      -0.144300
     11 C17        -21.9440     3.2890    31.0500 ca         1 QVU       0.070000
     12 Cl1        -21.4330     1.6980    31.6190 cl         1 QVU      -0.185000
     13 C          -22.5860     4.2010    31.9130 ca         1 QVU       0.182000
     14 Cl         -22.9090     3.7870    33.5970 cl         1 QVU      -0.184000
     15 C16        -21.7010     3.6450    29.7130 ca         1 QVU      -0.041000
     16 C2         -22.7390     5.8170    30.1060 ca         1 QVU       0.361000
     17 C1         -22.9830     5.4610    31.4370 ca         1 QVU      -0.182000
     18 C3         -22.7070     7.6240    28.3480 c6         1 QVU       0.218800
     19 N          -23.1540     7.0640    29.6350 nu         1 QVU      -0.960200
     20 O          -19.5780     6.0290    28.4390 o          1 QVU      -0.561100
     21 C14        -17.8310     6.7050    25.7460 ca         1 QVU       0.024000
     22 C12        -17.5620     9.0720    26.2090 ca         1 QVU       0.336900
     23 C11        -15.8110     7.9410    25.1970 ca         1 QVU       0.376900
     24 C9         -15.9860     5.5750    24.6400 ca         1 QVU       0.373900
     25 N2         -16.6570     4.4010    24.5940 nb         1 QVU      -0.652000
     26 H1         -20.5070     4.8840    25.6520 hn         1 QVU       0.157000
     27 H3         -23.7290     6.1360    27.1480 hc         1 QVU       0.060200
     28 H4         -22.0640     4.4840    27.0880 hc         1 QVU       0.063700
     29 H5         -18.4090     3.4010    25.0800 h4         1 QVU       0.024100
     30 H6         -19.3580     7.9800    26.6550 ha         1 QVU       0.127000
     31 H7         -21.2020     2.9390    29.0530 ha         1 QVU       0.124000
     32 H8         -23.4810     6.1560    32.1050 ha         1 QVU       0.131000
     33 H9         -21.6910     8.0360    28.4420 h1         1 QVU       0.049700
     34 H10        -23.3680     8.4420    28.0210 h1         1 QVU       0.049700
     35 H11        -23.5810     7.6910    30.3210 hn         1 QVU       0.485000
     36 H12        -17.9450    10.0160    26.5940 h4         1 QVU       0.022100
     37 H13        -14.8060     7.9890    24.7800 h4         1 QVU       0.025100
     38 H14        -14.9870     5.5790    24.2060 h4         1 QVU       0.027100
     39 H2         -22.3600     6.8740    26.3270 hc         1 QVU       0.060200
@<TRIPOS>BOND
     1     1     5 1   
     2     1     6 1   
     3     1    26 1   
     4     2    22 ar  
     5     2    23 ar  
     6     3     4 1   
     7     3    18 1   
     8     3    27 1   
     9     3    39 1   
    10     4     5 1   
    11     4    10 1   
    12     4    28 1   
    13     5    20 2   
    14     6     7 ar  
    15     6    21 ar  
    16     7    25 ar  
    17     7    29 1   
    18     8    21 ar  
    19     8    23 ar  
    20     8    24 ar  
    21     9    21 ar  
    22     9    22 ar  
    23     9    30 1   
    24    10    15 ar  
    25    10    16 ar  
    26    11    12 1   
    27    11    13 ar  
    28    11    15 ar  
    29    13    14 1   
    30    13    17 ar  
    31    15    31 1   
    32    16    17 ar  
    33    16    19 1   
    34    17    32 1   
    35    18    19 1   
    36    18    33 1   
    37    18    34 1   
    38    19    35 1   
    39    22    36 1   
    40    23    37 1   
    41    24    25 ar  
    42    24    38 1   
@<TRIPOS>SUBSTRUCTURE
     1 QVU         1 TEMP              0 ****  ****    0 ROOT
