@<TRIPOS>MOLECULE
QVW
   23    22     1     0     0
SMALL
No Charge or Current Charge


@<TRIPOS>ATOM
      1 C01         17.5010    25.2580    28.8160 c          1 QVW       0.712000
      2 C02         21.4330    25.5530    28.5070 c          1 QVW       0.455100
      3 C03         20.0580    24.9010    28.8220 c3         1 QVW      -0.143700
      4 C04         18.8860    25.9380    28.7740 c3         1 QVW      -0.187400
      5 C05         20.1170    24.0160    30.1030 c3         1 QVW      -0.046400
      6 C06         20.3120    24.7640    31.4460 c3         1 QVW      -0.079400
      7 C07         20.3740    23.8140    32.6570 c3         1 QVW      -0.077100
      8 O01         21.7950    24.6910    26.2290 o          1 QVW      -0.732500
      9 O02         17.0270    24.8530    27.7650 o          1 QVW      -0.764000
     10 O03         16.9440    25.1310    29.8960 o          1 QVW      -0.764000
     11 O05         23.4680    24.5260    27.5820 o          1 QVW      -0.732500
     12 H01         19.8830    24.1860    28.0090 hc         1 QVW       0.081700
     13 H03         19.0080    26.4460    27.8090 hc         1 QVW       0.019200
     14 H02         19.0140    26.6120    29.6300 hc         1 QVW       0.019200
     15 H04         19.1990    23.4180    30.1650 hc         1 QVW       0.036200
     16 H05         20.9350    23.2940    29.9860 hc         1 QVW       0.036200
     17 H07         21.2370    25.3500    31.4170 hc         1 QVW       0.049700
     18 H06         19.4880    25.4710    31.6010 hc         1 QVW       0.049700
     19 H10         20.5110    24.3840    33.5830 hc         1 QVW       0.007367
     20 H08         19.4460    23.2350    32.7440 hc         1 QVW       0.007367
     21 H09         21.2120    23.1130    32.5580 hc         1 QVW       0.007367
     22 C08         22.3100    24.8560    27.3330 c          1 QVW       0.651000
     23 O04         21.8390    26.5420    29.1300 o          1 QVW      -0.606100
@<TRIPOS>BOND
     1     1     4 1   
     2     1     9 1   
     3     1    10 1   
     4     2     3 1   
     5     2    22 1   
     6     2    23 2   
     7     3     4 1   
     8     3     5 1   
     9     3    12 1   
    10     4    13 1   
    11     4    14 1   
    12     5     6 1   
    13     5    15 1   
    14     5    16 1   
    15     6     7 1   
    16     6    17 1   
    17     6    18 1   
    18     7    19 1   
    19     7    20 1   
    20     7    21 1   
    21     8    22 1   
    22    11    22 1   
@<TRIPOS>SUBSTRUCTURE
     1 QVW         1 TEMP              0 ****  ****    0 ROOT
