@<TRIPOS>MOLECULE
QVW
   23    22     1     0     0
SMALL
bcc


@<TRIPOS>ATOM
      1 C01         17.4540    25.3360    29.1570 c          1 QVW       0.922600
      2 C02         21.2620    25.6550    28.3700 c          1 QVW       0.455100
      3 C03         19.9310    25.0030    28.6690 c3         1 QVW      -0.143700
      4 C04         18.8000    26.0140    28.8390 c3         1 QVW      -0.187400
      5 C05         20.0860    24.0370    29.8580 c3         1 QVW      -0.046400
      6 C06         20.4420    24.6960    31.1850 c3         1 QVW      -0.079400
      7 C07         20.4880    23.6890    32.3260 c3         1 QVW      -0.077100
      8 O01         22.3110    24.0460    27.0370 o          1 QVW      -0.837800
      9 O02         17.0240    24.5350    28.2990 o          1 QVW      -0.869300
     10 O03         16.9020    25.6330    30.2370 o          1 QVW      -0.869300
     11 O05         23.3700    24.7330    28.8960 o          1 QVW      -0.837800
     12 H01         19.7060    24.3750    27.7990 hc         1 QVW       0.081700
     13 H03         18.6990    26.5750    27.9040 hc         1 QVW       0.019200
     14 H02         19.0510    26.7430    29.6110 hc         1 QVW       0.019200
     15 H04         19.1520    23.4790    29.9680 hc         1 QVW       0.036200
     16 H05         20.8420    23.2840    29.6180 hc         1 QVW       0.036200
     17 H07         21.4150    25.1900    31.1030 hc         1 QVW       0.049700
     18 H06         19.7160    25.4770    31.4210 hc         1 QVW       0.049700
     19 H10         20.7230    24.1710    33.2760 hc         1 QVW       0.007367
     20 H08         19.5280    23.1830    32.4420 hc         1 QVW       0.007367
     21 H09         21.2450    22.9230    32.1470 hc         1 QVW       0.007367
     22 C08         22.4360    24.7150    28.0790 c          1 QVW       0.861600
     23 O04         21.4140    26.8600    28.3230 o          1 QVW      -0.606100
@<TRIPOS>BOND
     1     1     4 1   
     2     1     9 1   
     3     1    10 1   
     4     2     3 1   
     5     2    22 1   
     6     2    23 2   
     7     3     4 1   
     8     3     5 1   
     9     3    12 1   
    10     4    13 1   
    11     4    14 1   
    12     5     6 1   
    13     5    15 1   
    14     5    16 1   
    15     6     7 1   
    16     6    17 1   
    17     6    18 1   
    18     7    19 1   
    19     7    20 1   
    20     7    21 1   
    21     8    22 1   
    22    11    22 1   
@<TRIPOS>SUBSTRUCTURE
     1 QVW         1 TEMP              0 ****  ****    0 ROOT
