@<TRIPOS>MOLECULE
QVX
   47    50     1     0     0
SMALL
abcg2


@<TRIPOS>ATOM
      1 C18        -49.8940   -29.2240     6.3280 ca         1 QVX       0.317000
      2 C16        -47.8890   -29.7560     5.0740 ca         1 QVX      -0.034500
      3 C17        -48.5480   -29.6210     6.2810 ca         1 QVX      -0.187000
      4 C15        -48.5440   -29.5090     3.8620 ca         1 QVX      -0.162600
      5 C14        -47.8960   -29.6420     2.5220 c          1 QVX       0.605700
      6 C12        -45.8890   -30.3620     1.2920 c5         1 QVX       0.164000
      7 C11        -45.9020   -31.7660     0.7210 ca         1 QVX      -0.042300
      8 C10        -46.9420   -32.6830     0.6950 ca         1 QVX      -0.119000
      9 C20        -51.8310   -28.9630     7.9000 ca         1 QVX       0.283000
     10 C02        -43.7500   -30.4260     2.8210 c          1 QVX       0.719000
     11 C03        -44.3790   -30.0490     1.4560 c5         1 QVX      -0.203700
     12 C04        -43.7120   -30.8900     0.3320 c5         1 QVX      -0.004100
     13 C05        -44.6630   -32.0460     0.1560 ca         1 QVX      -0.087300
     14 C06        -44.4510   -33.2710    -0.4660 ca         1 QVX       0.127100
     15 C08        -45.4860   -34.2090    -0.4990 ca         1 QVX      -0.211000
     16 C09        -46.7180   -33.9140     0.0800 ca         1 QVX      -0.094000
     17 C21        -52.1720   -28.3050     9.0930 ca         1 QVX       0.269900
     18 C23        -54.4100   -28.6820     8.7980 ca         1 QVX       0.280900
     19 C24        -54.1760   -29.3610     7.6090 ca         1 QVX      -0.128000
     20 C25        -52.8750   -29.5140     7.1530 ca         1 QVX      -0.130000
     21 C26        -50.5490   -28.9530     5.1180 ca         1 QVX      -0.187000
     22 C27        -49.8770   -29.0980     3.9160 ca         1 QVX      -0.034500
     23 N13        -46.6650   -30.1820     2.4970 ns         1 QVX      -0.471900
     24 N19        -50.4860   -29.0750     7.5710 nu         1 QVX      -0.989000
     25 N22        -53.4170   -28.1710     9.5360 nb         1 QVX      -0.643000
     26 O01        -44.4000   -31.1670     3.6120 o          1 QVX      -0.730000
     27 O07        -43.2230   -33.5110    -1.0180 oh         1 QVX      -0.539100
     28 O28        -48.4760   -29.2650     1.4930 o          1 QVX      -0.664100
     29 O29        -42.6030   -29.9670     3.0290 o          1 QVX      -0.730000
     30 H161       -46.8480   -30.0520     5.0980 ha         1 QVX       0.142000
     31 H171       -48.0240   -29.8180     7.2080 ha         1 QVX       0.112000
     32 H121       -46.3070   -29.6850     0.5440 h1         1 QVX       0.062700
     33 H101       -47.8990   -32.4550     1.1470 ha         1 QVX       0.117000
     34 H031       -44.1910   -28.9860     1.3050 hc         1 QVX       0.054700
     35 H042       -43.6390   -30.3090    -0.5940 hc         1 QVX       0.052200
     36 H041       -42.7000   -31.1980     0.5940 hc         1 QVX       0.052200
     37 H081       -45.3190   -35.1700    -0.9740 ha         1 QVX       0.092000
     38 H091       -47.5060   -34.6560     0.0480 ha         1 QVX       0.094000
     39 H211       -51.3810   -27.8830     9.7070 h4         1 QVX       0.015100
     40 H231       -55.4180   -28.5460     9.1720 h4         1 QVX       0.014100
     41 H241       -55.0020   -29.7790     7.0500 ha         1 QVX       0.118000
     42 H251       -52.6790   -30.0720     6.2500 ha         1 QVX       0.134000
     43 H261       -51.5700   -28.6040     5.1110 ha         1 QVX       0.112000
     44 H271       -50.3900   -28.8800     2.9900 ha         1 QVX       0.142000
     45 H131       -46.2100   -30.5600     3.3200 hn         1 QVX       0.373500
     46 H191       -49.8450   -28.9820     8.3450 hn         1 QVX       0.493000
     47 H071       -43.2020   -34.3990    -1.3990 ho         1 QVX       0.444000
@<TRIPOS>BOND
     1     1     3 ar  
     2     1    21 ar  
     3     1    24 1   
     4     2     3 ar  
     5     2     4 ar  
     6     2    30 1   
     7     3    31 1   
     8     4     5 1   
     9     4    22 ar  
    10     5    23 1   
    11     5    28 2   
    12     6     7 1   
    13     6    11 1   
    14     6    23 1   
    15     6    32 1   
    16     7     8 ar  
    17     7    13 ar  
    18     8    16 ar  
    19     8    33 1   
    20     9    17 ar  
    21     9    20 ar  
    22     9    24 1   
    23    10    11 1   
    24    10    26 1   
    25    10    29 1   
    26    11    12 1   
    27    11    34 1   
    28    12    13 1   
    29    12    35 1   
    30    12    36 1   
    31    13    14 ar  
    32    14    15 ar  
    33    14    27 1   
    34    15    16 ar  
    35    15    37 1   
    36    16    38 1   
    37    17    25 ar  
    38    17    39 1   
    39    18    19 ar  
    40    18    25 ar  
    41    18    40 1   
    42    19    20 ar  
    43    19    41 1   
    44    20    42 1   
    45    21    22 ar  
    46    21    43 1   
    47    22    44 1   
    48    23    45 1   
    49    24    46 1   
    50    27    47 1   
@<TRIPOS>SUBSTRUCTURE
     1 QVX         1 TEMP              0 ****  ****    0 ROOT
