@<TRIPOS>MOLECULE
QVX
   47    50     1     0     0
SMALL
No Charge or Current Charge


@<TRIPOS>ATOM
      1 C18        -49.9740   -29.5610     6.3320 ca         1 QVX       0.317000
      2 C16        -48.3870   -30.6100     4.8050 ca         1 QVX      -0.034500
      3 C17        -49.0320   -30.5590     6.0530 ca         1 QVX      -0.187000
      4 C15        -48.6710   -29.6430     3.8090 ca         1 QVX      -0.162600
      5 C14        -48.0040   -29.6530     2.4480 c          1 QVX       0.605700
      6 C12        -46.3800   -30.7100     0.9400 c5         1 QVX       0.164000
      7 C11        -45.8480   -32.0580     0.5260 ca         1 QVX      -0.042300
      8 C10        -46.5710   -33.2610     0.4680 ca         1 QVX      -0.119000
      9 C20        -51.7970   -28.9980     8.0680 ca         1 QVX       0.283000
     10 C02        -44.5510   -29.8810     2.6450 c          1 QVX       0.719000
     11 C03        -45.0290   -29.8980     1.1650 c5         1 QVX      -0.203700
     12 C04        -43.9350   -30.6230     0.2790 c5         1 QVX      -0.004100
     13 C05        -44.5170   -32.0110     0.1540 ca         1 QVX      -0.087300
     14 C06        -43.8540   -33.1700    -0.2880 ca         1 QVX       0.127100
     15 C08        -44.5610   -34.3850    -0.3450 ca         1 QVX      -0.211000
     16 C09        -45.9190   -34.4310     0.0330 ca         1 QVX      -0.094000
     17 C21        -51.9830   -28.6840     9.4460 ca         1 QVX       0.269900
     18 C23        -54.1650   -27.9770     9.1120 ca         1 QVX       0.280900
     19 C24        -54.0880   -28.2710     7.7380 ca         1 QVX      -0.128000
     20 C25        -52.8920   -28.7930     7.2070 ca         1 QVX      -0.130000
     21 C26        -50.2480   -28.5870     5.3610 ca         1 QVX      -0.187000
     22 C27        -49.6080   -28.6270     4.1100 ca         1 QVX      -0.034500
     23 N13        -47.1260   -30.6900     2.2010 ns         1 QVX      -0.471900
     24 N19        -50.5820   -29.5360     7.5870 nu         1 QVX      -0.989000
     25 N22        -53.1350   -28.1800     9.9650 nb         1 QVX      -0.643000
     26 O01        -44.3200   -30.9300     3.2310 o          1 QVX      -0.730000
     27 O07        -42.5430   -33.1270    -0.6620 oh         1 QVX      -0.539100
     28 O28        -48.2390   -28.7880     1.6120 o          1 QVX      -0.664100
     29 O29        -44.3950   -28.7980     3.1890 o          1 QVX      -0.730000
     30 H161       -47.6670   -31.4070     4.6350 ha         1 QVX       0.142000
     31 H171       -48.8010   -31.3100     6.8030 ha         1 QVX       0.112000
     32 H121       -46.9540   -30.2930     0.1010 h1         1 QVX       0.062700
     33 H101       -47.6200   -33.2890     0.7530 ha         1 QVX       0.117000
     34 H031       -45.1560   -28.8570     0.8490 hc         1 QVX       0.054700
     35 H042       -43.8410   -30.1500    -0.7050 hc         1 QVX       0.052200
     36 H041       -42.9400   -30.6130     0.7390 hc         1 QVX       0.052200
     37 H081       -44.0680   -35.2930    -0.6830 ha         1 QVX       0.092000
     38 H091       -46.4660   -35.3700    -0.0150 ha         1 QVX       0.094000
     39 H211       -51.1730   -28.8390    10.1580 h4         1 QVX       0.015100
     40 H231       -55.0810   -27.5740     9.5430 h4         1 QVX       0.014100
     41 H241       -54.9500   -28.1010     7.0990 ha         1 QVX       0.118000
     42 H251       -52.8310   -29.0480     6.1540 ha         1 QVX       0.134000
     43 H261       -50.9430   -27.7800     5.5730 ha         1 QVX       0.112000
     44 H271       -49.8410   -27.8590     3.3740 ha         1 QVX       0.142000
     45 H131       -46.9640   -31.3570     2.9420 hn         1 QVX       0.373500
     46 H191       -50.0280   -30.0060     8.3070 hn         1 QVX       0.493000
     47 H071       -42.2740   -34.0300    -0.9330 ho         1 QVX       0.444000
@<TRIPOS>BOND
     1     1     3 ar  
     2     1    21 ar  
     3     1    24 1   
     4     2     3 ar  
     5     2     4 ar  
     6     2    30 1   
     7     3    31 1   
     8     4     5 1   
     9     4    22 ar  
    10     5    23 1   
    11     5    28 2   
    12     6     7 1   
    13     6    11 1   
    14     6    23 1   
    15     6    32 1   
    16     7     8 ar  
    17     7    13 ar  
    18     8    16 ar  
    19     8    33 1   
    20     9    17 ar  
    21     9    20 ar  
    22     9    24 1   
    23    10    11 1   
    24    10    26 1   
    25    10    29 1   
    26    11    12 1   
    27    11    34 1   
    28    12    13 1   
    29    12    35 1   
    30    12    36 1   
    31    13    14 ar  
    32    14    15 ar  
    33    14    27 1   
    34    15    16 ar  
    35    15    37 1   
    36    16    38 1   
    37    17    25 ar  
    38    17    39 1   
    39    18    19 ar  
    40    18    25 ar  
    41    18    40 1   
    42    19    20 ar  
    43    19    41 1   
    44    20    42 1   
    45    21    22 ar  
    46    21    43 1   
    47    22    44 1   
    48    23    45 1   
    49    24    46 1   
    50    27    47 1   
@<TRIPOS>SUBSTRUCTURE
     1 QVX         1 TEMP              0 ****  ****    0 ROOT
