@<TRIPOS>MOLECULE
QVY
   35    38     1     0     0
SMALL
No Charge or Current Charge


@<TRIPOS>ATOM
      1 C4          44.4200    11.5820   -32.3190 ca         1 QVY      -0.124300
      2 C14         44.8420    13.2270   -30.3620 c6         1 QVY      -0.060700
      3 C5          43.3920    10.6310   -32.3580 ca         1 QVY       0.008000
      4 C6          43.5400     9.3800   -32.9640 ca         1 QVY      -0.085000
      5 C7          42.2780    11.2430   -31.6980 cc         1 QVY      -0.179000
      6 C8          40.9280    11.1330   -31.8470 cd         1 QVY       0.271900
      7 C10         41.3920    13.1550   -31.1330 cc         1 QVY       0.415400
      8 C12         43.9590    12.8760   -31.6010 c5         1 QVY       0.143600
      9 C3          45.6650    11.2870   -32.8970 ca         1 QVY      -0.084000
     10 C1          44.7900     9.0800   -33.5440 ca         1 QVY      -0.100000
     11 C2          45.8440    10.0260   -33.5090 ca         1 QVY      -0.115000
     12 N9          40.3670    12.3380   -31.4230 nd         1 QVY      -0.682000
     13 N11         42.5810    12.4800   -31.2910 na         1 QVY      -0.172500
     14 C16         44.9340    12.0560   -29.3310 c6         1 QVY      -0.113400
     15 C17         45.7820    12.4640   -28.1040 c6         1 QVY       0.150600
     16 O18         45.2390    13.6620   -27.5100 os         1 QVY      -0.440000
     17 C19         45.2430    14.8040   -28.3960 c6         1 QVY       0.121600
     18 C20         44.3570    14.5250   -29.6480 c6         1 QVY       0.132300
     19 O22         44.3940    15.6400   -30.5570 oh         1 QVY      -0.721000
     20 H15         45.8580    13.4170   -30.7360 hc         1 QVY       0.069700
     21 H1          42.7220     8.6640   -32.9840 ha         1 QVY       0.125000
     22 H2          40.3470    10.3300   -32.2840 h4         1 QVY       0.041100
     23 H3          41.3380    14.2020   -30.8590 h5         1 QVY       0.055100
     24 H13         43.9610    13.7200   -32.3040 h1         1 QVY       0.100700
     25 H4          46.4750    12.0130   -32.8760 ha         1 QVY       0.118000
     26 H5          44.9460     8.1160   -34.0220 ha         1 QVY       0.116000
     27 H6          46.8020     9.7810   -33.9610 ha         1 QVY       0.116000
     28 H7          43.9310    11.7630   -28.9910 hc         1 QVY       0.066200
     29 H8          45.3780    11.1650   -29.7960 hc         1 QVY       0.066200
     30 H9          45.7740    11.6580   -27.3560 h1         1 QVY       0.048700
     31 H10         46.8250    12.6440   -28.4020 h1         1 QVY       0.048700
     32 H11         46.2780    15.0230   -28.7000 h1         1 QVY       0.051700
     33 H12         44.8550    15.6740   -27.8480 h1         1 QVY       0.051700
     34 H21         43.3270    14.3660   -29.2970 h1         1 QVY       0.046700
     35 H14         44.0090    16.4160   -30.0850 ho         1 QVY       0.511000
@<TRIPOS>BOND
     1     1     3 ar  
     2     1     8 1   
     3     1     9 ar  
     4     2     8 1   
     5     2    14 1   
     6     2    18 1   
     7     2    20 1   
     8     3     4 ar  
     9     3     5 1   
    10     4    10 ar  
    11     4    21 1   
    12     5     6 2   
    13     5    13 1   
    14     6    12 1   
    15     6    22 1   
    16     7    12 2   
    17     7    13 1   
    18     7    23 1   
    19     8    13 1   
    20     8    24 1   
    21     9    11 ar  
    22     9    25 1   
    23    10    11 ar  
    24    10    26 1   
    25    11    27 1   
    26    14    15 1   
    27    14    28 1   
    28    14    29 1   
    29    15    16 1   
    30    15    30 1   
    31    15    31 1   
    32    16    17 1   
    33    17    18 1   
    34    17    32 1   
    35    17    33 1   
    36    18    19 1   
    37    18    34 1   
    38    19    35 1   
@<TRIPOS>SUBSTRUCTURE
     1 QVY         1 TEMP              0 ****  ****    0 ROOT
