@<TRIPOS>MOLECULE
QVY
   35    38     1     0     0
SMALL
bcc


@<TRIPOS>ATOM
      1 C4          44.4590    11.6370   -32.3810 ca         1 QVY      -0.124300
      2 C14         44.7820    13.1940   -30.4080 c6         1 QVY      -0.060700
      3 C5          43.4290    10.6930   -32.4580 ca         1 QVY       0.008000
      4 C6          43.6470     9.4490   -33.0320 ca         1 QVY      -0.103000
      5 C7          42.2520    11.2950   -31.8690 cc         1 QVY      -0.193600
      6 C8          40.9210    11.1540   -31.5790 cd         1 QVY       0.337200
      7 C10         41.4820    13.1300   -30.9520 cc         1 QVY       0.415400
      8 C12         43.9880    12.8970   -31.6880 c5         1 QVY       0.114300
      9 C3          45.7160    11.3500   -32.8740 ca         1 QVY      -0.102000
     10 C1          44.9140     9.1640   -33.5280 ca         1 QVY      -0.118000
     11 C2          45.9380    10.1020   -33.4520 ca         1 QVY      -0.133000
     12 N9          40.4590    12.3070   -31.0090 nd         1 QVY      -0.682000
     13 N11         42.5880    12.5560   -31.4580 na         1 QVY      -0.193900
     14 C16         44.7410    12.0640   -29.3830 c6         1 QVY      -0.113400
     15 C17         45.5780    12.4240   -28.1660 c6         1 QVY       0.127400
     16 O18         45.1740    13.6470   -27.5870 os         1 QVY      -0.393600
     17 C19         45.2590    14.7150   -28.4980 c6         1 QVY       0.098400
     18 C20         44.3670    14.4900   -29.7210 c6         1 QVY       0.109100
     19 O22         44.4870    15.5530   -30.6350 oh         1 QVY      -0.598800
     20 H15         45.8210    13.3220   -30.7390 hc         1 QVY       0.069700
     21 H1          42.8530     8.7160   -33.0930 ha         1 QVY       0.143000
     22 H2          40.2780    10.3060   -31.7560 h4         1 QVY       0.041100
     23 H3          41.4550    14.1390   -30.5720 h5         1 QVY       0.055100
     24 H13         44.0490    13.7580   -32.3580 h1         1 QVY       0.100700
     25 H4          46.5180    12.0760   -32.8150 ha         1 QVY       0.136000
     26 H5          45.1060     8.2000   -33.9800 ha         1 QVY       0.134000
     27 H6          46.9170     9.8600   -33.8440 ha         1 QVY       0.134000
     28 H7          43.7110    11.8650   -29.0720 hc         1 QVY       0.066200
     29 H8          45.1300    11.1370   -29.8110 hc         1 QVY       0.066200
     30 H9          45.4790    11.6590   -27.3950 h1         1 QVY       0.048700
     31 H10         46.6390    12.4710   -28.4520 h1         1 QVY       0.048700
     32 H11         46.2950    14.8680   -28.8380 h1         1 QVY       0.051700
     33 H12         44.9460    15.6170   -27.9670 h1         1 QVY       0.051700
     34 H21         43.3320    14.3920   -29.3610 h1         1 QVY       0.046700
     35 H14         44.0630    16.3310   -30.2610 ho         1 QVY       0.412000
@<TRIPOS>BOND
     1     1     3 ar  
     2     1     8 1   
     3     1     9 ar  
     4     2     8 1   
     5     2    14 1   
     6     2    18 1   
     7     2    20 1   
     8     3     4 ar  
     9     3     5 1   
    10     4    10 ar  
    11     4    21 1   
    12     5     6 2   
    13     5    13 1   
    14     6    12 1   
    15     6    22 1   
    16     7    12 2   
    17     7    13 1   
    18     7    23 1   
    19     8    13 1   
    20     8    24 1   
    21     9    11 ar  
    22     9    25 1   
    23    10    11 ar  
    24    10    26 1   
    25    11    27 1   
    26    14    15 1   
    27    14    28 1   
    28    14    29 1   
    29    15    16 1   
    30    15    30 1   
    31    15    31 1   
    32    16    17 1   
    33    17    18 1   
    34    17    32 1   
    35    17    33 1   
    36    18    19 1   
    37    18    34 1   
    38    19    35 1   
@<TRIPOS>SUBSTRUCTURE
     1 QVY         1 TEMP              0 ****  ****    0 ROOT
