@<TRIPOS>MOLECULE
QVZ
   44    46     1     0     0
SMALL
No Charge or Current Charge


@<TRIPOS>ATOM
      1 C10         19.0770    24.4360    32.0740 ca         1 QVZ      -0.084000
      2 C13         18.2600    25.0420    34.5450 c5         1 QVZ       0.042600
      3 C15         21.1450    25.7820    37.6570 ca         1 QVZ      -0.126000
      4 C17         18.7600    25.6600    37.0990 ca         1 QVZ      -0.101000
      5 C01         21.2890    25.8620    28.7590 c          1 QVZ       0.438100
      6 C02         19.9580    25.0640    28.7900 c3         1 QVZ      -0.138700
      7 C04         18.7070    25.9890    28.9590 c3         1 QVZ      -0.196400
      8 C05         20.2090    24.2390    31.2510 ca         1 QVZ      -0.027300
      9 C06         21.5090    24.3570    31.8070 ca         1 QVZ      -0.106000
     10 C07         21.6890    24.6850    33.1670 ca         1 QVZ      -0.089000
     11 C08         20.5530    24.8900    33.9740 cp         1 QVZ      -0.097000
     12 C09         19.2770    24.7630    33.4220 ca         1 QVZ      -0.086300
     13 C11         20.4640    25.2350    35.3910 cp         1 QVZ       0.007000
     14 C12         19.1270    25.3380    35.7840 ca         1 QVZ      -0.078300
     15 C14         21.4920    25.4570    36.3290 ca         1 QVZ      -0.110000
     16 C16         19.7870    25.8820    38.0390 ca         1 QVZ      -0.146000
     17 C18         17.3680    26.2560    34.1910 c3         1 QVZ      -0.071600
     18 C19         17.3530    23.8110    34.7870 c3         1 QVZ      -0.071600
     19 O02         23.4620    25.1910    27.8310 o          1 QVZ      -0.724000
     20 O03         21.9000    25.5890    26.3950 o          1 QVZ      -0.724000
     21 O04         17.1170    25.3080    27.3320 o          1 QVZ      -0.762000
     22 O05         16.7440    24.7020    29.3610 o          1 QVZ      -0.762000
     23 H08         18.0710    24.3390    31.6740 ha         1 QVZ       0.157000
     24 H10         21.9270    25.9560    38.3920 ha         1 QVZ       0.088000
     25 H12         17.7140    25.7350    37.3850 ha         1 QVZ       0.101000
     26 H01         19.8840    24.5930    27.8020 hc         1 QVZ       0.098700
     27 H02         19.1360    23.2460    29.6640 hc         1 QVZ       0.054200
     28 H03         20.8650    23.2140    29.4730 hc         1 QVZ       0.054200
     29 H04         18.6580    26.2800    30.0150 hc         1 QVZ       0.027200
     30 H05         18.8940    26.8380    28.2890 hc         1 QVZ       0.027200
     31 H06         22.3830    24.1970    31.1790 ha         1 QVZ       0.146000
     32 H07         22.6890    24.7780    33.5840 ha         1 QVZ       0.095000
     33 H09         22.5360    25.3800    36.0340 ha         1 QVZ       0.110000
     34 H11         19.5320    26.1330    39.0660 ha         1 QVZ       0.087000
     35 H14         16.6690    26.4890    35.0030 hc         1 QVZ       0.037867
     36 H13         17.9780    27.1500    34.0120 hc         1 QVZ       0.037867
     37 H15         16.7790    26.0700    33.2850 hc         1 QVZ       0.037867
     38 H18         16.6540    23.9860    35.6140 hc         1 QVZ       0.037867
     39 H16         16.7630    23.5680    33.8960 hc         1 QVZ       0.037867
     40 H17         17.9520    22.9280    35.0400 hc         1 QVZ       0.037867
     41 C03         20.0360    23.8630    29.7800 c3         1 QVZ      -0.025100
     42 C20         22.3090    25.5140    27.5510 c          1 QVZ       0.642000
     43 C21         17.4080    25.2850    28.5180 c          1 QVZ       0.707000
     44 O01         21.5620    26.7030    29.6240 o          1 QVZ      -0.581100
@<TRIPOS>BOND
     1     1     8 ar  
     2     1    12 ar  
     3     1    23 1   
     4     2    12 1   
     5     2    14 1   
     6     2    17 1   
     7     2    18 1   
     8     3    15 ar  
     9     3    16 ar  
    10     3    24 1   
    11     4    14 ar  
    12     4    16 ar  
    13     4    25 1   
    14     5     6 1   
    15     5    42 1   
    16     5    44 2   
    17     6     7 1   
    18     6    26 1   
    19     6    41 1   
    20     7    29 1   
    21     7    30 1   
    22     7    43 1   
    23     8     9 ar  
    24     8    41 1   
    25     9    10 ar  
    26     9    31 1   
    27    10    11 ar  
    28    10    32 1   
    29    11    12 ar  
    30    11    13 1   
    31    13    14 ar  
    32    13    15 ar  
    33    15    33 1   
    34    16    34 1   
    35    17    35 1   
    36    17    36 1   
    37    17    37 1   
    38    18    38 1   
    39    18    39 1   
    40    18    40 1   
    41    19    42 1   
    42    20    42 1   
    43    21    43 1   
    44    22    43 1   
    45    27    41 1   
    46    28    41 1   
@<TRIPOS>SUBSTRUCTURE
     1 QVZ         1 TEMP              0 ****  ****    0 ROOT
