@<TRIPOS>MOLECULE
QVZ
   44    46     1     0     0
SMALL
bcc


@<TRIPOS>ATOM
      1 C10         19.1470    24.3890    31.9940 ca         1 QVZ      -0.102000
      2 C13         18.3030    24.9900    34.3770 c5         1 QVZ       0.042600
      3 C15         21.1180    25.7710    37.4940 ca         1 QVZ      -0.144000
      4 C17         18.7880    25.6260    36.8620 ca         1 QVZ      -0.119000
      5 C01         21.1410    25.9930    28.8290 c          1 QVZ       0.438100
      6 C02         19.8430    25.2180    28.8330 c3         1 QVZ      -0.138700
      7 C04         18.6450    26.0610    29.2460 c3         1 QVZ      -0.196400
      8 C05         20.2420    24.2130    31.1460 ca         1 QVZ      -0.027300
      9 C06         21.5300    24.3430    31.6730 ca         1 QVZ      -0.124000
     10 C07         21.7390    24.6500    33.0120 ca         1 QVZ      -0.107000
     11 C08         20.6390    24.8410    33.8360 cp         1 QVZ      -0.097000
     12 C09         19.3480    24.7100    33.3210 ca         1 QVZ      -0.086300
     13 C11         20.5320    25.1970    35.2490 cp         1 QVZ       0.007000
     14 C12         19.1750    25.2920    35.5780 ca         1 QVZ      -0.078300
     15 C14         21.5120    25.4350    36.2040 ca         1 QVZ      -0.128000
     16 C16         19.7690    25.8650    37.8220 ca         1 QVZ      -0.164000
     17 C18         17.4470    26.1990    33.9830 c3         1 QVZ      -0.071600
     18 C19         17.4130    23.7690    34.6240 c3         1 QVZ      -0.071600
     19 O02         23.4480    25.4470    28.8590 o          1 QVZ      -0.829300
     20 O03         22.1800    24.6540    27.1880 o          1 QVZ      -0.829300
     21 O04         17.1280    24.6730    28.0460 o          1 QVZ      -0.867300
     22 O05         16.4460    25.5080    29.9950 o          1 QVZ      -0.867300
     23 H08         18.1430    24.3030    31.5960 ha         1 QVZ       0.175000
     24 H10         21.8680    25.9610    38.2520 ha         1 QVZ       0.106000
     25 H12         17.7400    25.7020    37.1250 ha         1 QVZ       0.119000
     26 H01         19.6850    24.8700    27.8090 hc         1 QVZ       0.098700
     27 H02         19.1250    23.3290    29.5570 hc         1 QVZ       0.054200
     28 H03         20.8490    23.3530    29.2820 hc         1 QVZ       0.054200
     29 H04         18.7590    26.4300    30.2670 hc         1 QVZ       0.027200
     30 H05         18.6150    26.9520    28.6080 hc         1 QVZ       0.027200
     31 H06         22.3850    24.2150    31.0200 ha         1 QVZ       0.164000
     32 H07         22.7490    24.7460    33.3950 ha         1 QVZ       0.113000
     33 H09         22.5630    25.3630    35.9540 ha         1 QVZ       0.128000
     34 H11         19.4800    26.1280    38.8320 ha         1 QVZ       0.105000
     35 H14         16.7180    26.4260    34.7630 hc         1 QVZ       0.037867
     36 H13         18.0630    27.0850    33.8240 hc         1 QVZ       0.037867
     37 H15         16.9010    25.9970    33.0590 hc         1 QVZ       0.037867
     38 H18         16.6990    23.9680    35.4250 hc         1 QVZ       0.037867
     39 H16         16.8450    23.5190    33.7270 hc         1 QVZ       0.037867
     40 H17         18.0050    22.8980    34.9060 hc         1 QVZ       0.037867
     41 C03         20.0200    23.9390    29.6860 c3         1 QVZ      -0.025100
     42 C20         22.3850    25.2870    28.2380 c          1 QVZ       0.852600
     43 C21         17.2900    25.3420    29.0880 c          1 QVZ       0.917600
     44 O01         21.2260    27.1300    29.2390 o          1 QVZ      -0.581100
@<TRIPOS>BOND
     1     1     8 ar  
     2     1    12 ar  
     3     1    23 1   
     4     2    12 1   
     5     2    14 1   
     6     2    17 1   
     7     2    18 1   
     8     3    15 ar  
     9     3    16 ar  
    10     3    24 1   
    11     4    14 ar  
    12     4    16 ar  
    13     4    25 1   
    14     5     6 1   
    15     5    42 1   
    16     5    44 2   
    17     6     7 1   
    18     6    26 1   
    19     6    41 1   
    20     7    29 1   
    21     7    30 1   
    22     7    43 1   
    23     8     9 ar  
    24     8    41 1   
    25     9    10 ar  
    26     9    31 1   
    27    10    11 ar  
    28    10    32 1   
    29    11    12 ar  
    30    11    13 1   
    31    13    14 ar  
    32    13    15 ar  
    33    15    33 1   
    34    16    34 1   
    35    17    35 1   
    36    17    36 1   
    37    17    37 1   
    38    18    38 1   
    39    18    39 1   
    40    18    40 1   
    41    19    42 1   
    42    20    42 1   
    43    21    43 1   
    44    22    43 1   
    45    27    41 1   
    46    28    41 1   
@<TRIPOS>SUBSTRUCTURE
     1 QVZ         1 TEMP              0 ****  ****    0 ROOT
