@<TRIPOS>MOLECULE
QW0
   50    54     1     0     0
SMALL
No Charge or Current Charge


@<TRIPOS>ATOM
      1 C1          21.9770   -13.8250    12.6310 ca         1 QW0      -0.045800
      2 C2          21.2890   -12.7630    13.2600 ca         1 QW0      -0.082000
      3 C3          23.3940   -13.7590    12.5410 ca         1 QW0       0.009800
      4 C4          21.9880   -11.6640    13.7860 ca         1 QW0       0.129000
      5 C5          24.0850   -12.6500    13.0700 ca         1 QW0      -0.076000
      6 C6          23.3840   -11.6050    13.6910 ca         1 QW0      -0.082000
      7 N10         25.3350   -15.9710    10.7400 nc         1 QW0      -0.037000
      8 C12         24.4670   -15.8680    12.7190 cd         1 QW0       0.401400
      9 C15         19.1830   -16.5000    11.7460 c          1 QW0       0.598300
     10 C18         19.2710   -18.4170    10.1020 c3         1 QW0       0.081700
     11 C19         19.0580   -19.6450    10.9620 cc         1 QW0       0.374800
     12 C21         18.3440   -20.9210    12.6250 cc         1 QW0      -0.127000
     13 C27         15.6140   -21.4440    15.2090 ca         1 QW0      -0.021000
     14 C30         17.6370   -21.4440    13.7950 ca         1 QW0       0.036000
     15 C33         15.8760   -23.0570    17.2310 cc         1 QW0       0.554800
     16 C28         18.2490   -22.3790    14.6660 ca         1 QW0      -0.121000
     17 C26         17.5150   -22.8220    15.7720 ca         1 QW0      -0.000200
     18 N31         17.8470   -23.7120    16.7770 na         1 QW0      -0.079400
     19 N32         16.8070   -23.8670    17.7130 nd         1 QW0      -0.575100
     20 N34         14.7030   -22.9030    17.8600 nv         1 QW0      -0.968200
     21 C25         16.2580   -22.3770    16.0300 ca         1 QW0      -0.257900
     22 C29         16.3260   -20.9760    14.0820 ca         1 QW0      -0.160000
     23 N20         18.2880   -19.6520    12.1000 na         1 QW0      -0.275500
     24 C22         19.0980   -21.6590    11.7420 cd         1 QW0       0.345000
     25 Cl24        19.4290   -23.3630    11.7870 cl         1 QW0      -0.139000
     26 N23         19.5510   -20.8530    10.7160 nd         1 QW0      -0.655000
     27 N17         19.8510   -17.2580    10.8110 ns         1 QW0      -0.496900
     28 O16         18.0370   -16.7590    12.0790 o          1 QW0      -0.630100
     29 C14         19.9310   -15.3560    12.3370 ce         1 QW0      -0.244200
     30 C13         21.2180   -14.9690    12.0670 cf         1 QW0      -0.129200
     31 Cl7         21.1060   -10.3530    14.5590 cl         1 QW0      -0.180000
     32 N8          24.1350   -14.7830    11.9560 na         1 QW0      -0.017500
     33 N9          24.6960   -14.8280    10.7320 nd         1 QW0      -0.189800
     34 N11         25.2200   -16.6390    11.9510 nc         1 QW0      -0.376000
     35 H1          20.2060   -12.7680    13.3340 ha         1 QW0       0.142000
     36 H2          25.1700   -12.6010    13.0000 ha         1 QW0       0.147000
     37 H3          23.9210   -10.7520    14.0980 ha         1 QW0       0.146000
     38 H4          24.1490   -16.0250    13.7420 h5         1 QW0       0.081100
     39 H5          18.3060   -18.1210     9.6710 h1         1 QW0       0.082200
     40 H6          19.9330   -18.6830     9.2680 h1         1 QW0       0.082200
     41 H8          19.2630   -22.7310    14.5010 ha         1 QW0       0.134000
     42 H9          18.7300   -24.2160    16.8650 hn         1 QW0       0.380000
     43 H10         14.6540   -23.2450    18.8130 hn         1 QW0       0.450500
     44 H11         14.1530   -22.0820    17.6380 hn         1 QW0       0.450500
     45 H12         15.8530   -20.2530    13.4230 ha         1 QW0       0.115000
     46 H13         17.8110   -18.8380    12.4760 hn         1 QW0       0.387000
     47 H15         20.8000   -16.9850    10.5910 hn         1 QW0       0.329500
     48 H16         19.3500   -14.8020    13.0700 ha         1 QW0       0.209000
     49 H17         21.7750   -15.5490    11.3300 ha         1 QW0       0.184000
     50 H7          14.6080   -21.0900    15.4260 ha         1 QW0       0.118000
@<TRIPOS>BOND
     1     1     2 ar  
     2     1     3 ar  
     3     1    30 1   
     4     2     4 ar  
     5     2    35 1   
     6     3     5 ar  
     7     3    32 1   
     8     4     6 ar  
     9     4    31 1   
    10     5     6 ar  
    11     5    36 1   
    12     6    37 1   
    13     7    33 2   
    14     7    34 1   
    15     8    32 1   
    16     8    34 2   
    17     8    38 1   
    18     9    27 1   
    19     9    28 2   
    20     9    29 1   
    21    10    11 1   
    22    10    27 1   
    23    10    39 1   
    24    10    40 1   
    25    11    23 1   
    26    11    26 2   
    27    12    14 1   
    28    12    23 1   
    29    12    24 2   
    30    13    21 ar  
    31    13    22 ar  
    32    13    50 1   
    33    14    16 ar  
    34    14    22 ar  
    35    15    19 2   
    36    15    20 1   
    37    15    21 1   
    38    16    17 ar  
    39    16    41 1   
    40    17    18 1   
    41    17    21 ar  
    42    18    19 1   
    43    18    42 1   
    44    20    43 1   
    45    20    44 1   
    46    22    45 1   
    47    23    46 1   
    48    24    25 1   
    49    24    26 1   
    50    27    47 1   
    51    29    30 2   
    52    29    48 1   
    53    30    49 1   
    54    32    33 1   
@<TRIPOS>SUBSTRUCTURE
     1 QW0         1 TEMP              0 ****  ****    0 ROOT
