@<TRIPOS>MOLECULE
QW0
   50    54     1     0     0
SMALL
abcg2


@<TRIPOS>ATOM
      1 C1          21.8290   -13.9730    12.6590 ca         1 QW0      -0.045800
      2 C2          21.1670   -12.7750    12.9540 ca         1 QW0      -0.082000
      3 C3          23.2090   -14.0250    12.9060 ca         1 QW0       0.009800
      4 C4          21.8670   -11.6950    13.4590 ca         1 QW0       0.129000
      5 C5          23.9060   -12.9360    13.4090 ca         1 QW0      -0.076000
      6 C6          23.2380   -11.7540    13.6870 ca         1 QW0      -0.082000
      7 N10         25.4260   -16.4630    11.8050 nc         1 QW0      -0.037000
      8 C12         23.8150   -16.4460    13.2000 cd         1 QW0       0.401400
      9 C15         19.0680   -16.4710    11.5830 c          1 QW0       0.598300
     10 C18         18.9640   -18.2740     9.9190 c3         1 QW0       0.081700
     11 C19         18.9200   -19.5280    10.7310 cc         1 QW0       0.374800
     12 C21         18.4180   -20.8980    12.4130 cc         1 QW0      -0.127000
     13 C27         16.0270   -21.0730    15.3110 ca         1 QW0      -0.021000
     14 C30         17.8200   -21.3360    13.6700 ca         1 QW0       0.036000
     15 C33         16.2910   -22.7760    17.2910 cc         1 QW0       0.554800
     16 C28         18.4000   -22.3630    14.4070 ca         1 QW0      -0.121000
     17 C26         17.7720   -22.7440    15.5960 ca         1 QW0      -0.000200
     18 N31         18.0790   -23.6950    16.5110 na         1 QW0      -0.079400
     19 N32         17.1850   -23.7120    17.5540 nd         1 QW0      -0.575100
     20 N34         15.1860   -22.5630    18.0950 nv         1 QW0      -0.968200
     21 C25         16.5960   -22.1100    16.0590 ca         1 QW0      -0.257900
     22 C29         16.6340   -20.6990    14.1320 ca         1 QW0      -0.160000
     23 N20         18.2690   -19.6180    11.9140 na         1 QW0      -0.275500
     24 C22         19.1710   -21.5260    11.4380 cd         1 QW0       0.345000
     25 CL24        19.6680   -23.1790    11.3860 cl         1 QW0      -0.139000
     26 N23         19.4770   -20.6850    10.4110 nd         1 QW0      -0.655000
     27 N17         19.6410   -17.1660    10.5820 ns         1 QW0      -0.496900
     28 O16         17.9470   -16.7650    12.0230 o          1 QW0      -0.630100
     29 C14         19.8040   -15.3250    12.1640 ce         1 QW0      -0.244200
     30 C13         21.1200   -15.1110    12.0710 cf         1 QW0      -0.129200
     31 CL7         21.0110   -10.2150    13.8050 cl         1 QW0      -0.180000
     32 N8          23.9380   -15.2240    12.6520 na         1 QW0      -0.017500
     33 N9          24.9650   -15.2640    11.7750 nd         1 QW0      -0.189800
     34 N11         24.7320   -17.2320    12.6830 nc         1 QW0      -0.376000
     35 H1          20.1090   -12.6820    12.7570 ha         1 QW0       0.142000
     36 H2          24.9690   -13.0200    13.5910 ha         1 QW0       0.147000
     37 H3          23.7690   -10.8990    14.0780 ha         1 QW0       0.146000
     38 H4          23.0800   -16.7040    13.9430 h5         1 QW0       0.081100
     39 H5          17.9470   -17.9620     9.6710 h1         1 QW0       0.082200
     40 H6          19.4950   -18.4840     8.9940 h1         1 QW0       0.082200
     41 H8          19.3120   -22.8410    14.0830 ha         1 QW0       0.134000
     42 H9          18.8670   -24.3200    16.5230 hn         1 QW0       0.380000
     43 H10         15.2860   -22.9290    19.0320 hn         1 QW0       0.450500
     44 H11         14.8590   -21.6070    18.1050 hn         1 QW0       0.450500
     45 H12         16.1870   -19.9180    13.5330 ha         1 QW0       0.115000
     46 H13         17.8290   -18.8220    12.3610 hn         1 QW0       0.387000
     47 H15         20.5490   -16.9010    10.2390 hn         1 QW0       0.329500
     48 H16         19.1700   -14.6730    12.7510 ha         1 QW0       0.209000
     49 H17         21.7400   -15.8190    11.5340 ha         1 QW0       0.184000
     50 H7          15.1220   -20.5790    15.6430 ha         1 QW0       0.118000
@<TRIPOS>BOND
     1     1     2 ar  
     2     1     3 ar  
     3     1    30 1   
     4     2     4 ar  
     5     2    35 1   
     6     3     5 ar  
     7     3    32 1   
     8     4     6 ar  
     9     4    31 1   
    10     5     6 ar  
    11     5    36 1   
    12     6    37 1   
    13     7    33 2   
    14     7    34 1   
    15     8    32 1   
    16     8    34 2   
    17     8    38 1   
    18     9    27 1   
    19     9    28 2   
    20     9    29 1   
    21    10    11 1   
    22    10    27 1   
    23    10    39 1   
    24    10    40 1   
    25    11    23 1   
    26    11    26 2   
    27    12    14 1   
    28    12    23 1   
    29    12    24 2   
    30    13    21 ar  
    31    13    22 ar  
    32    13    50 1   
    33    14    16 ar  
    34    14    22 ar  
    35    15    19 2   
    36    15    20 1   
    37    15    21 1   
    38    16    17 ar  
    39    16    41 1   
    40    17    18 1   
    41    17    21 ar  
    42    18    19 1   
    43    18    42 1   
    44    20    43 1   
    45    20    44 1   
    46    22    45 1   
    47    23    46 1   
    48    24    25 1   
    49    24    26 1   
    50    27    47 1   
    51    29    30 2   
    52    29    48 1   
    53    30    49 1   
    54    32    33 1   
@<TRIPOS>SUBSTRUCTURE
     1 QW0         1 TEMP              0 ****  ****    0 ROOT
