@<TRIPOS>MOLECULE
QW1
   44    47     1     0     0
SMALL
abcg2


@<TRIPOS>ATOM
      1 N1         -22.3850     7.2690    28.7210 n          1 QW1      -0.424800
      2 N3         -16.7420     4.1300    25.0520 nb         1 QW1      -0.656000
      3 C4         -18.7120     5.1620    25.9720 ca         1 QW1      -0.072000
      4 C5         -17.9990     4.0650    25.5560 ca         1 QW1       0.300900
      5 C6         -16.1720     5.3110    24.9770 ca         1 QW1       0.356900
      6 C7         -16.8010     6.5170    25.3670 ca         1 QW1      -0.090000
      7 C8         -16.1560     7.7700    25.2500 ca         1 QW1      -0.093000
      8 C10        -18.1410     8.8560    26.0850 ca         1 QW1      -0.092000
      9 C13        -22.0710     4.5450    29.4850 ca         1 QW1      -0.048300
     10 C15        -22.1310     2.8200    31.1570 ca         1 QW1       0.128000
     11 C17        -22.6200     5.0750    31.7670 ca         1 QW1      -0.101000
     12 CL         -21.9510     1.1330    31.5990 cl         1 QW1      -0.206000
     13 C14        -21.9310     3.2040    29.8430 ca         1 QW1      -0.089000
     14 C16        -22.4790     3.7460    32.1330 ca         1 QW1      -0.091000
     15 C18        -22.4130     5.4900    30.4500 ca         1 QW1      -0.071300
     16 C19        -22.5590     6.9600    30.1340 c6         1 QW1       0.155300
     17 C          -22.0390     8.5110    28.2740 c          1 QW1       0.646100
     18 O          -21.8550     8.7580    27.0760 o          1 QW1      -0.654100
     19 N          -21.8500     9.4780    29.2290 nt         1 QW1      -0.583000
     20 C2         -21.8680     4.9650    28.0540 c6         1 QW1      -0.114400
     21 C1         -22.7000     6.2240    27.7660 c6         1 QW1       0.119000
     22 C3         -20.3930     5.2340    27.7550 c          1 QW1       0.606100
     23 O1         -19.6180     5.6750    28.5920 o          1 QW1      -0.556100
     24 N2         -20.0300     4.9860    26.4680 ns         1 QW1      -0.166000
     25 C12        -18.1310     6.4530    25.8720 ca         1 QW1      -0.004000
     26 C11        -18.7910     7.6540    26.2160 ca         1 QW1      -0.078000
     27 C9         -16.8130     8.9190    25.6070 ca         1 QW1      -0.105000
     28 H1         -18.4450     3.0790    25.6250 h4         1 QW1       0.017100
     29 H2         -15.1590     5.3520    24.5860 h4         1 QW1       0.020100
     30 H3         -15.1420     7.8030    24.8700 ha         1 QW1       0.115000
     31 H4         -18.6550     9.7710    26.3480 ha         1 QW1       0.121000
     32 H5         -22.8940     5.8050    32.5190 ha         1 QW1       0.117000
     33 H6         -21.6700     2.4690    29.0920 ha         1 QW1       0.130000
     34 H7         -22.6370     3.4330    33.1560 ha         1 QW1       0.133000
     35 H8         -21.7990     7.4960    30.7050 h1         1 QW1       0.054200
     36 H9         -23.5380     7.3040    30.4900 h1         1 QW1       0.054200
     37 H10        -21.7590    10.4100    28.8570 hn         1 QW1       0.303000
     38 H11        -22.3240     9.4190    30.1150 hn         1 QW1       0.303000
     39 H12        -22.2220     4.1730    27.3920 hc         1 QW1       0.068700
     40 H13        -22.5030     6.6040    26.7700 h1         1 QW1       0.069700
     41 H14        -23.7590     5.9570    27.8350 h1         1 QW1       0.069700
     42 H15        -20.6880     4.5010    25.8760 hn         1 QW1       0.153000
     43 H16        -19.8110     7.6320    26.5720 ha         1 QW1       0.143000
     44 H17        -16.3210     9.8790    25.5190 ha         1 QW1       0.114000
@<TRIPOS>BOND
     1     1    16 1   
     2     1    17 1   
     3     1    21 1   
     4     2     4 ar  
     5     2     5 ar  
     6     3     4 ar  
     7     3    24 1   
     8     3    25 ar  
     9     4    28 1   
    10     5     6 ar  
    11     5    29 1   
    12     6     7 ar  
    13     6    25 ar  
    14     7    27 ar  
    15     7    30 1   
    16     8    26 ar  
    17     8    27 ar  
    18     8    31 1   
    19     9    13 ar  
    20     9    15 ar  
    21     9    20 1   
    22    10    12 1   
    23    10    13 ar  
    24    10    14 ar  
    25    11    14 ar  
    26    11    15 ar  
    27    11    32 1   
    28    13    33 1   
    29    14    34 1   
    30    15    16 1   
    31    16    35 1   
    32    16    36 1   
    33    17    18 2   
    34    17    19 1   
    35    19    37 1   
    36    19    38 1   
    37    20    21 1   
    38    20    22 1   
    39    20    39 1   
    40    21    40 1   
    41    21    41 1   
    42    22    23 2   
    43    22    24 1   
    44    24    42 1   
    45    25    26 ar  
    46    26    43 1   
    47    27    44 1   
@<TRIPOS>SUBSTRUCTURE
     1 QW1         1 TEMP              0 ****  ****    0 ROOT
