@<TRIPOS>MOLECULE
QW1
   44    47     1     0     0
SMALL
No Charge or Current Charge


@<TRIPOS>ATOM
      1 N1         -22.5190     7.2920    28.6070 n          1 QW1      -0.424800
      2 N3         -16.8780     4.1780    24.5330 nb         1 QW1      -0.656000
      3 C4         -18.6610     5.1810    25.8580 ca         1 QW1      -0.072000
      4 C5         -18.0810     4.1090    25.1460 ca         1 QW1       0.300900
      5 C6         -16.2050     5.3490    24.6040 ca         1 QW1       0.356900
      6 C7         -16.7060     6.4870    25.2660 ca         1 QW1      -0.090000
      7 C8         -15.9650     7.6850    25.2820 ca         1 QW1      -0.093000
      8 C10        -17.7420     8.7680    26.5380 ca         1 QW1      -0.092000
      9 C13        -22.0220     4.5220    29.5620 ca         1 QW1      -0.048300
     10 C15        -22.2690     2.8580    31.3190 ca         1 QW1       0.128000
     11 C17        -22.4950     5.2240    31.8410 ca         1 QW1      -0.101000
     12 Cl         -22.2780     1.1760    31.8350 cl         1 QW1      -0.206000
     13 C14        -22.0280     3.1760    29.9730 ca         1 QW1      -0.089000
     14 C16        -22.5040     3.8790    32.2530 ca         1 QW1      -0.091000
     15 C18        -22.2560     5.5500    30.4920 ca         1 QW1      -0.071300
     16 C19        -22.2130     7.0190    30.0490 c6         1 QW1       0.155300
     17 C          -22.8630     8.5740    28.1480 c          1 QW1       0.646100
     18 O          -23.2360     8.7910    27.0100 o          1 QW1      -0.654100
     19 N          -22.7530     9.5900    29.0240 nt         1 QW1      -0.583000
     20 C2         -21.7800     4.9030    28.1090 c6         1 QW1      -0.114400
     21 C1         -22.6420     6.1170    27.6960 c6         1 QW1       0.119000
     22 C3         -20.2910     5.1650    27.8040 c          1 QW1       0.606100
     23 O1         -19.4850     5.4740    28.6750 o          1 QW1      -0.556100
     24 N2         -19.9190     4.9710    26.4830 ns         1 QW1      -0.166000
     25 C12        -17.9650     6.4160    25.9040 ca         1 QW1      -0.004000
     26 C11        -18.4850     7.5740    26.5270 ca         1 QW1      -0.078000
     27 C9         -16.4820     8.8230    25.9220 ca         1 QW1      -0.105000
     28 H1         -18.5950     3.1510    25.0800 h4         1 QW1       0.017100
     29 H2         -15.2390     5.3770    24.1010 h4         1 QW1       0.020100
     30 H3         -14.9930     7.7370    24.7950 ha         1 QW1       0.115000
     31 H4         -18.1480     9.6540    27.0220 ha         1 QW1       0.121000
     32 H5         -22.6690     6.0110    32.5720 ha         1 QW1       0.117000
     33 H6         -21.8490     2.3800    29.2550 ha         1 QW1       0.130000
     34 H7         -22.6880     3.6290    33.2950 ha         1 QW1       0.133000
     35 H8         -21.2140     7.4170    30.2740 h1         1 QW1       0.054200
     36 H9         -22.9300     7.5720    30.6730 h1         1 QW1       0.054200
     37 H10        -22.9880    10.5230    28.7220 hn         1 QW1       0.303000
     38 H11        -22.4280     9.4210    29.9620 hn         1 QW1       0.303000
     39 H12        -22.1040     4.1050    27.4270 hc         1 QW1       0.068700
     40 H13        -22.3840     6.4120    26.6680 h1         1 QW1       0.069700
     41 H14        -23.6980     5.8100    27.6810 h1         1 QW1       0.069700
     42 H15        -20.6510     4.6320    25.8700 hn         1 QW1       0.153000
     43 H16        -19.4640     7.5720    26.9960 ha         1 QW1       0.143000
     44 H17        -15.9110     9.7480    25.9320 ha         1 QW1       0.114000
@<TRIPOS>BOND
     1     1    16 1   
     2     1    17 1   
     3     1    21 1   
     4     2     4 ar  
     5     2     5 ar  
     6     3     4 ar  
     7     3    24 1   
     8     3    25 ar  
     9     4    28 1   
    10     5     6 ar  
    11     5    29 1   
    12     6     7 ar  
    13     6    25 ar  
    14     7    27 ar  
    15     7    30 1   
    16     8    26 ar  
    17     8    27 ar  
    18     8    31 1   
    19     9    13 ar  
    20     9    15 ar  
    21     9    20 1   
    22    10    12 1   
    23    10    13 ar  
    24    10    14 ar  
    25    11    14 ar  
    26    11    15 ar  
    27    11    32 1   
    28    13    33 1   
    29    14    34 1   
    30    15    16 1   
    31    16    35 1   
    32    16    36 1   
    33    17    18 2   
    34    17    19 1   
    35    19    37 1   
    36    19    38 1   
    37    20    21 1   
    38    20    22 1   
    39    20    39 1   
    40    21    40 1   
    41    21    41 1   
    42    22    23 2   
    43    22    24 1   
    44    24    42 1   
    45    25    26 ar  
    46    26    43 1   
    47    27    44 1   
@<TRIPOS>SUBSTRUCTURE
     1 QW1         1 TEMP              0 ****  ****    0 ROOT
