@<TRIPOS>MOLECULE
QW2
   23    22     1     0     0
SMALL
bcc


@<TRIPOS>ATOM
      1 C01         18.8580   -24.8120     6.3210 c3         1 QW2      -0.049400
      2 C02         20.2150   -25.0660     5.6760 c3         1 QW2      -0.091400
      3 C03         20.2990   -24.4650     4.2790 c3         1 QW2      -0.077100
      4 C04         22.2360   -24.8450     9.0840 c          1 QW2       0.859600
      5 C05         17.1800   -25.1700     8.1590 c          1 QW2       0.928600
      6 C06         18.6450   -25.4240     7.7110 c3         1 QW2      -0.179700
      7 C07         19.6800   -24.9190     8.7100 c3         1 QW2      -0.164400
      8 C08         20.9960   -25.6590     8.7140 c          1 QW2       0.452100
      9 O01         21.0730   -26.8540     8.5050 o          1 QW2      -0.611100
     10 O02         23.1260   -24.7720     8.2220 o          1 QW2      -0.838300
     11 O03         22.1990   -24.3460    10.2230 o          1 QW2      -0.838300
     12 O04         16.2990   -25.6080     7.3890 o          1 QW2      -0.861800
     13 O05         16.9850   -24.5580     9.2270 o          1 QW2      -0.861800
     14 H04         18.6990   -23.7270     6.3850 hc         1 QW2       0.022200
     15 H05         18.0820   -25.1940     5.6530 hc         1 QW2       0.022200
     16 H06         20.4000   -26.1430     5.6230 hc         1 QW2       0.053200
     17 H07         21.0220   -24.6500     6.2880 hc         1 QW2       0.053200
     18 H08         21.2710   -24.6480     3.8200 hc         1 QW2       0.005367
     19 H10         19.5370   -24.8880     3.6220 hc         1 QW2       0.005367
     20 H09         20.1450   -23.3850     4.3060 hc         1 QW2       0.005367
     21 H03         18.7560   -26.5100     7.6160 hc         1 QW2       0.043700
     22 H01         19.8610   -23.8480     8.5760 hc         1 QW2       0.060700
     23 H02         19.2860   -25.0110     9.7280 hc         1 QW2       0.060700
@<TRIPOS>BOND
     1     1     2 1   
     2     1     6 1   
     3     1    14 1   
     4     1    15 1   
     5     2     3 1   
     6     2    16 1   
     7     2    17 1   
     8     3    18 1   
     9     3    19 1   
    10     3    20 1   
    11     4     8 1   
    12     4    10 1   
    13     4    11 1   
    14     5     6 1   
    15     5    12 1   
    16     5    13 1   
    17     6     7 1   
    18     6    21 1   
    19     7     8 1   
    20     7    22 1   
    21     7    23 1   
    22     8     9 2   
@<TRIPOS>SUBSTRUCTURE
     1 QW2         1 TEMP              0 ****  ****    0 ROOT
