@<TRIPOS>MOLECULE
QW2
   23    22     1     0     0
SMALL
No Charge or Current Charge


@<TRIPOS>ATOM
      1 C01         18.9050   -24.6370     6.3870 c3         1 QW2      -0.049400
      2 C02         20.2320   -24.9900     5.6760 c3         1 QW2      -0.091400
      3 C03         20.3910   -24.2830     4.3150 c3         1 QW2      -0.077100
      4 C04         22.2700   -24.8890     8.7710 c          1 QW2       0.649000
      5 C05         17.1250   -25.2690     8.0990 c          1 QW2       0.718000
      6 C06         18.6110   -25.4420     7.6860 c3         1 QW2      -0.179700
      7 C07         19.5650   -25.1110     8.8830 c3         1 QW2      -0.164400
      8 C08         20.9370   -25.8250     8.8340 c          1 QW2       0.452100
      9 O01         20.9990   -27.0590     8.8950 o          1 QW2      -0.611100
     10 O02         23.2680   -25.3220     8.1990 o          1 QW2      -0.733000
     11 O03         22.2540   -23.7950     9.3320 o          1 QW2      -0.733000
     12 O04         16.4030   -26.2550     8.0850 o          1 QW2      -0.756500
     13 O05         16.7340   -24.1610     8.4340 o          1 QW2      -0.756500
     14 H04         18.8870   -23.5630     6.6080 hc         1 QW2       0.022200
     15 H05         18.0850   -24.8210     5.6810 hc         1 QW2       0.022200
     16 H06         20.2910   -26.0740     5.5230 hc         1 QW2       0.053200
     17 H07         21.0780   -24.7040     6.3080 hc         1 QW2       0.053200
     18 H08         21.3470   -24.5550     3.8530 hc         1 QW2       0.005367
     19 H10         19.5850   -24.5730     3.6310 hc         1 QW2       0.005367
     20 H09         20.3670   -23.1940     4.4390 hc         1 QW2       0.005367
     21 H03         18.7380   -26.5050     7.4440 hc         1 QW2       0.043700
     22 H01         19.7000   -24.0260     8.9480 hc         1 QW2       0.060700
     23 H02         19.0740   -25.4460     9.8050 hc         1 QW2       0.060700
@<TRIPOS>BOND
     1     1     2 1   
     2     1     6 1   
     3     1    14 1   
     4     1    15 1   
     5     2     3 1   
     6     2    16 1   
     7     2    17 1   
     8     3    18 1   
     9     3    19 1   
    10     3    20 1   
    11     4     8 1   
    12     4    10 1   
    13     4    11 1   
    14     5     6 1   
    15     5    12 1   
    16     5    13 1   
    17     6     7 1   
    18     6    21 1   
    19     7     8 1   
    20     7    22 1   
    21     7    23 1   
    22     8     9 2   
@<TRIPOS>SUBSTRUCTURE
     1 QW2         1 TEMP              0 ****  ****    0 ROOT
