@<TRIPOS>MOLECULE
QW3
   50    53     1     0     0
SMALL
abcg2


@<TRIPOS>ATOM
      1 C18        -50.5570   -29.1680     5.6290 ca         1 QW3      -0.217000
      2 C16        -49.9410   -29.2450     4.3800 ca         1 QW3       0.234100
      3 C15        -48.5360   -29.1710     4.2500 ca         1 QW3      -0.275600
      4 C14        -47.9230   -29.3060     2.9120 c          1 QW3       0.617700
      5 C12        -45.8870   -29.6480     1.5770 c5         1 QW3       0.162000
      6 C11        -45.6290   -28.3740     0.7910 ca         1 QW3      -0.064300
      7 C10        -46.5180   -27.6450     0.0110 ca         1 QW3      -0.110000
      8 C19        -49.7880   -28.9980     6.7770 ca         1 QW3       0.042000
      9 C02        -44.2690   -31.0470     3.1120 c          1 QW3       0.719000
     10 C03        -44.4470   -30.1760     1.8530 c5         1 QW3      -0.205700
     11 C04        -43.5510   -28.9140     1.8520 c5         1 QW3      -0.013100
     12 C05        -44.3120   -27.9600     0.9740 ca         1 QW3      -0.091300
     13 C06        -43.8670   -26.7860     0.3760 ca         1 QW3       0.117100
     14 C08        -44.7470   -26.0440    -0.4150 ca         1 QW3      -0.206000
     15 C09        -46.0590   -26.4760    -0.5930 ca         1 QW3      -0.100000
     16 C21        -51.6290   -29.0420     8.4750 c          1 QW3       0.659100
     17 C23        -53.0840   -28.9590    10.4300 cx         1 QW3       0.065700
     18 C24        -53.7240   -30.2980    10.6640 cx         1 QW3      -0.135900
     19 C25        -53.1640   -29.5140    11.8200 cx         1 QW3      -0.135900
     20 C27        -48.3880   -28.8940     6.6590 ca         1 QW3      -0.238000
     21 C28        -47.7900   -28.9810     5.4230 ca         1 QW3       0.011000
     22 N13        -46.5920   -29.3790     2.8290 ns         1 QW3      -0.456900
     23 N20        -50.3140   -28.9120     8.0620 ns         1 QW3      -0.162000
     24 N22        -51.7890   -28.9070     9.8210 ns         1 QW3      -0.510900
     25 O01        -44.5820   -30.5180     4.2210 o          1 QW3      -0.722000
     26 O07        -42.5700   -26.4090     0.5880 oh         1 QW3      -0.540100
     27 O17        -50.7370   -29.4000     3.3030 oh         1 QW3      -0.579100
     28 O26        -52.5640   -29.2720     7.7130 o          1 QW3      -0.611100
     29 O29        -48.6440   -29.3570     1.8830 o          1 QW3      -0.708100
     30 O30        -43.8120   -32.2020     2.9590 o          1 QW3      -0.722000
     31 H181       -51.6290   -29.2410     5.6880 ha         1 QW3       0.156000
     32 H121       -46.4700   -30.3700     1.0040 h1         1 QW3       0.069700
     33 H101       -47.5390   -27.9750    -0.1210 ha         1 QW3       0.133000
     34 H031       -44.1780   -30.7800     0.9880 hc         1 QW3       0.054700
     35 H042       -43.4440   -28.5100     2.8630 hc         1 QW3       0.061700
     36 H041       -42.5480   -29.1290     1.4810 hc         1 QW3       0.061700
     37 H081       -44.3990   -25.1340    -0.8900 ha         1 QW3       0.094000
     38 H091       -46.7260   -25.8900    -1.2140 ha         1 QW3       0.098000
     39 H231       -53.7440   -28.1350    10.1830 h1         1 QW3       0.083700
     40 H242       -54.7980   -30.3660    10.5560 hc         1 QW3       0.076700
     41 H241       -53.1700   -31.1660    10.3340 hc         1 QW3       0.076700
     42 H251       -53.8520   -29.0410    12.5080 hc         1 QW3       0.076700
     43 H252       -52.2420   -29.8640    12.2650 hc         1 QW3       0.076700
     44 H271       -47.7860   -28.7450     7.5470 ha         1 QW3       0.106000
     45 H281       -46.7140   -28.8880     5.3720 ha         1 QW3       0.142000
     46 H131       -46.0190   -29.5590     3.6570 hn         1 QW3       0.386500
     47 H201       -49.6270   -28.7790     8.7890 hn         1 QW3       0.141000
     48 H221       -51.0230   -28.5670    10.3810 hn         1 QW3       0.310500
     49 H071       -42.3850   -25.5860     0.1160 ho         1 QW3       0.445000
     50 H171       -50.1150   -29.4070     2.5180 ho         1 QW3       0.528000
@<TRIPOS>BOND
     1     1     2 ar  
     2     1     8 ar  
     3     1    31 1   
     4     2     3 ar  
     5     2    27 1   
     6     3     4 1   
     7     3    21 ar  
     8     4    22 1   
     9     4    29 2   
    10     5     6 1   
    11     5    10 1   
    12     5    22 1   
    13     5    32 1   
    14     6     7 ar  
    15     6    12 ar  
    16     7    15 ar  
    17     7    33 1   
    18     8    20 ar  
    19     8    23 1   
    20     9    10 1   
    21     9    25 1   
    22     9    30 1   
    23    10    11 1   
    24    10    34 1   
    25    11    12 1   
    26    11    35 1   
    27    11    36 1   
    28    12    13 ar  
    29    13    14 ar  
    30    13    26 1   
    31    14    15 ar  
    32    14    37 1   
    33    15    38 1   
    34    16    23 1   
    35    16    24 1   
    36    16    28 2   
    37    17    18 1   
    38    17    19 1   
    39    17    24 1   
    40    17    39 1   
    41    18    19 1   
    42    18    40 1   
    43    18    41 1   
    44    19    42 1   
    45    19    43 1   
    46    20    21 ar  
    47    20    44 1   
    48    21    45 1   
    49    22    46 1   
    50    23    47 1   
    51    24    48 1   
    52    26    49 1   
    53    27    50 1   
@<TRIPOS>SUBSTRUCTURE
     1 QW3         1 TEMP              0 ****  ****    0 ROOT
