@<TRIPOS>MOLECULE
QW3
   50    53     1     0     0
SMALL
No Charge or Current Charge


@<TRIPOS>ATOM
      1 C18        -50.6350   -29.2280     5.4640 ca         1 QW3      -0.217000
      2 C16        -49.9970   -29.3110     4.2200 ca         1 QW3       0.234100
      3 C15        -48.5910   -29.3590     4.1180 ca         1 QW3      -0.275600
      4 C14        -47.9280   -29.4480     2.7620 c          1 QW3       0.617700
      5 C12        -45.8670   -29.6710     1.4640 c5         1 QW3       0.162000
      6 C11        -45.5710   -28.3580     0.7760 ca         1 QW3      -0.064300
      7 C10        -46.4320   -27.6430    -0.0740 ca         1 QW3      -0.110000
      8 C19        -49.8820   -29.1890     6.6530 ca         1 QW3       0.042000
      9 C02        -44.2450   -31.0630     3.0410 c          1 QW3       0.719000
     10 C03        -44.3830   -30.1250     1.8110 c5         1 QW3      -0.205700
     11 C04        -43.5530   -28.7930     2.0010 c5         1 QW3      -0.013100
     12 C05        -44.3070   -27.8760     1.0710 ca         1 QW3      -0.091300
     13 C06        -43.8580   -26.6570     0.5320 ca         1 QW3       0.117100
     14 C08        -44.7080   -25.9310    -0.3210 ca         1 QW3      -0.206000
     15 C09        -45.9940   -26.4240    -0.6250 ca         1 QW3      -0.100000
     16 C21        -51.7670   -29.0450     8.3860 c          1 QW3       0.659100
     17 C23        -53.0980   -28.9010    10.4840 cx         1 QW3       0.065700
     18 C24        -53.6310   -30.1770    11.0840 cx         1 QW3      -0.135900
     19 C25        -53.0460   -29.1100    11.9770 cx         1 QW3      -0.135900
     20 C27        -48.4830   -29.2340     6.5610 ca         1 QW3      -0.238000
     21 C28        -47.8370   -29.3170     5.3160 ca         1 QW3       0.011000
     22 N13        -46.5560   -29.5220     2.7440 ns         1 QW3      -0.456900
     23 N20        -50.4540   -29.1060     7.9500 ns         1 QW3      -0.162000
     24 N22        -51.8590   -28.9720     9.7580 ns         1 QW3      -0.510900
     25 O01        -44.5220   -30.6470     4.1580 o          1 QW3      -0.722000
     26 O07        -42.6160   -26.1770     0.8270 oh         1 QW3      -0.540100
     27 O17        -50.7630   -29.3440     3.0990 oh         1 QW3      -0.579100
     28 O26        -52.7560   -29.0520     7.6660 o          1 QW3      -0.611100
     29 O29        -48.5970   -29.4560     1.7340 o          1 QW3      -0.708100
     30 O30        -43.8210   -32.1940     2.8620 o          1 QW3      -0.722000
     31 H181       -51.7180   -29.1950     5.4810 ha         1 QW3       0.156000
     32 H121       -46.3640   -30.3890     0.7950 h1         1 QW3       0.069700
     33 H101       -47.4240   -28.0260    -0.3020 ha         1 QW3       0.133000
     34 H031       -43.9980   -30.6660     0.9380 hc         1 QW3       0.054700
     35 H042       -43.5840   -28.4180     3.0310 hc         1 QW3       0.061700
     36 H041       -42.4990   -28.9190     1.7260 hc         1 QW3       0.061700
     37 H081       -44.3810   -24.9870    -0.7500 ha         1 QW3       0.094000
     38 H091       -46.6510   -25.8600    -1.2850 ha         1 QW3       0.098000
     39 H231       -53.8140   -28.1750    10.0920 h1         1 QW3       0.083700
     40 H242       -54.7090   -30.3150    11.0970 hc         1 QW3       0.076700
     41 H241       -53.0570   -31.0890    10.9380 hc         1 QW3       0.076700
     42 H251       -53.7310   -28.5300    12.5900 hc         1 QW3       0.076700
     43 H252       -52.0800   -29.3070    12.4350 hc         1 QW3       0.076700
     44 H271       -47.8810   -29.2030     7.4660 ha         1 QW3       0.106000
     45 H281       -46.7500   -29.3450     5.3090 ha         1 QW3       0.142000
     46 H131       -46.0700   -29.6080     3.6300 hn         1 QW3       0.386500
     47 H201       -49.7680   -29.0880     8.6910 hn         1 QW3       0.141000
     48 H221       -50.9870   -28.9660    10.2710 hn         1 QW3       0.310500
     49 H071       -42.4980   -25.3250     0.3570 ho         1 QW3       0.445000
     50 H171       -50.1010   -29.3910     2.3520 ho         1 QW3       0.528000
@<TRIPOS>BOND
     1     1     2 ar  
     2     1     8 ar  
     3     1    31 1   
     4     2     3 ar  
     5     2    27 1   
     6     3     4 1   
     7     3    21 ar  
     8     4    22 1   
     9     4    29 2   
    10     5     6 1   
    11     5    10 1   
    12     5    22 1   
    13     5    32 1   
    14     6     7 ar  
    15     6    12 ar  
    16     7    15 ar  
    17     7    33 1   
    18     8    20 ar  
    19     8    23 1   
    20     9    10 1   
    21     9    25 1   
    22     9    30 1   
    23    10    11 1   
    24    10    34 1   
    25    11    12 1   
    26    11    35 1   
    27    11    36 1   
    28    12    13 ar  
    29    13    14 ar  
    30    13    26 1   
    31    14    15 ar  
    32    14    37 1   
    33    15    38 1   
    34    16    23 1   
    35    16    24 1   
    36    16    28 2   
    37    17    18 1   
    38    17    19 1   
    39    17    24 1   
    40    17    39 1   
    41    18    19 1   
    42    18    40 1   
    43    18    41 1   
    44    19    42 1   
    45    19    43 1   
    46    20    21 ar  
    47    20    44 1   
    48    21    45 1   
    49    22    46 1   
    50    23    47 1   
    51    24    48 1   
    52    26    49 1   
    53    27    50 1   
@<TRIPOS>SUBSTRUCTURE
     1 QW3         1 TEMP              0 ****  ****    0 ROOT
