@<TRIPOS>MOLECULE
QW4
   44    47     1     0     0
SMALL
No Charge or Current Charge


@<TRIPOS>ATOM
      1 C10         16.8960    -1.2840   -15.0110 cc         1 QW4       0.104000
      2 C12         18.0800    -3.4680   -14.6740 c3         1 QW4       0.185100
      3 C01          8.8330     1.4490   -15.1460 c3         1 QW4      -0.195100
      4 C02         10.0710     1.0100   -15.9230 c          1 QW4       0.541100
      5 C04         11.4270     1.4290   -15.3340 c3         1 QW4      -0.056400
      6 C06         13.4300     0.7900   -16.8030 cc         1 QW4       0.358500
      7 C07         13.5230    -0.5920   -16.3410 ce         1 QW4      -0.456600
      8 C08         14.5410    -1.3320   -15.7730 cd         1 QW4       0.203800
      9 C09         15.7670    -0.6520   -15.5060 cd         1 QW4      -0.319000
     10 C13         15.5930    -3.3750   -14.9230 ca         1 QW4       0.290000
     11 C14         15.5050    -4.7240   -14.4920 ca         1 QW4      -0.148000
     12 C15         14.2940    -5.4290   -14.5440 ca         1 QW4      -0.031000
     13 C16         13.1430    -4.7960   -15.0200 ca         1 QW4      -0.111000
     14 C17         13.2030    -3.4590   -15.4360 ca         1 QW4      -0.052000
     15 C18         14.4250    -2.7410   -15.3920 ca         1 QW4      -0.106800
     16 C20         13.6240     2.9870   -17.8920 ca         1 QW4      -0.204000
     17 C21         13.8940     4.1480   -18.6330 ca         1 QW4      -0.036000
     18 C22         13.0700     5.2740   -18.4500 ca         1 QW4      -0.099000
     19 C23         11.9950     5.2250   -17.5390 ca         1 QW4      -0.057000
     20 C24         11.7390     4.0500   -16.8030 ca         1 QW4      -0.105000
     21 C25         12.5740     2.9300   -16.9900 ca         1 QW4      -0.005200
     22 N05         12.4680     1.6980   -16.3570 na         1 QW4      -0.163500
     23 N11         16.8290    -2.6850   -14.8780 na         1 QW4      -0.580200
     24 O03          9.9760     0.3570   -16.9550 o          1 QW4      -0.480100
     25 S19         14.5500     1.4740   -18.0050 ss         1 QW4       0.148800
     26 H1          17.8440    -0.7830   -14.8130 h4         1 QW4       0.227000
     27 H2          18.1090    -4.3290   -15.3550 h1         1 QW4       0.076700
     28 H3          18.9610    -2.8460   -14.8790 h1         1 QW4       0.076700
     29 H4          18.1420    -3.8210   -13.6360 h1         1 QW4       0.076700
     30 H5           7.9010     1.0860   -15.5940 hc         1 QW4       0.074700
     31 H6           8.9360     1.1330   -14.1020 hc         1 QW4       0.074700
     32 H7           8.8370     2.5420   -15.0590 hc         1 QW4       0.074700
     33 H8          11.2830     2.3170   -14.7090 h1         1 QW4       0.094200
     34 H9          11.7600     0.6210   -14.6720 h1         1 QW4       0.094200
     35 H10         12.5800    -1.1040   -16.4910 ha         1 QW4       0.196000
     36 H12         15.8430     0.4130   -15.6890 ha         1 QW4       0.214000
     37 H13         16.3690    -5.2520   -14.1020 ha         1 QW4       0.136000
     38 H14         14.2490    -6.4640   -14.2100 ha         1 QW4       0.142000
     39 H15         12.2000    -5.3380   -15.0570 ha         1 QW4       0.140000
     40 H16         12.2790    -3.0050   -15.7760 ha         1 QW4       0.127000
     41 H17         14.7220     4.1790   -19.3380 ha         1 QW4       0.140000
     42 H18         13.2610     6.1840   -19.0150 ha         1 QW4       0.140000
     43 H19         11.3590     6.0980   -17.4030 ha         1 QW4       0.138000
     44 H20         10.9040     4.0290   -16.1080 ha         1 QW4       0.132000
@<TRIPOS>BOND
     1     1     9 2   
     2     1    23 1   
     3     1    26 1   
     4     2    23 1   
     5     2    27 1   
     6     2    28 1   
     7     2    29 1   
     8     3     4 1   
     9     3    30 1   
    10     3    31 1   
    11     3    32 1   
    12     4     5 1   
    13     4    24 2   
    14     5    22 1   
    15     5    33 1   
    16     5    34 1   
    17     6     7 1   
    18     6    22 2   
    19     6    25 1   
    20     7     8 2   
    21     7    35 1   
    22     8     9 1   
    23     8    15 1   
    24     9    36 1   
    25    10    11 ar  
    26    10    15 ar  
    27    10    23 1   
    28    11    12 ar  
    29    11    37 1   
    30    12    13 ar  
    31    12    38 1   
    32    13    14 ar  
    33    13    39 1   
    34    14    15 ar  
    35    14    40 1   
    36    16    17 ar  
    37    16    21 ar  
    38    16    25 1   
    39    17    18 ar  
    40    17    41 1   
    41    18    19 ar  
    42    18    42 1   
    43    19    20 ar  
    44    19    43 1   
    45    20    21 ar  
    46    20    44 1   
    47    21    22 1   
@<TRIPOS>SUBSTRUCTURE
     1 QW4         1 TEMP              0 ****  ****    0 ROOT
