@<TRIPOS>MOLECULE
QW4
   44    47     1     0     0
SMALL
abcg2


@<TRIPOS>ATOM
      1 C10         17.0000    -1.6200   -15.6600 cc         1 QW4       0.104000
      2 C12         17.9190    -3.8080   -15.1590 c3         1 QW4       0.185100
      3 C01          9.1020     0.2370   -15.5060 c3         1 QW4      -0.195100
      4 C02         10.3170     0.7160   -16.2410 c          1 QW4       0.541100
      5 C04         11.2550     1.6060   -15.4290 c3         1 QW4      -0.056400
      6 C06         13.5620     1.1510   -16.1810 cc         1 QW4       0.358500
      7 C07         13.5870    -0.1070   -15.6040 ce         1 QW4      -0.456600
      8 C08         14.6560    -1.0180   -15.5030 cd         1 QW4       0.203800
      9 C09         15.9970    -0.6970   -15.7880 cd         1 QW4      -0.319000
     10 C13         15.4990    -3.2990   -14.9560 ca         1 QW4       0.290000
     11 C14         15.2740    -4.6220   -14.5390 ca         1 QW4      -0.148000
     12 C15         13.9990    -5.0470   -14.2400 ca         1 QW4      -0.031000
     13 C16         12.9170    -4.1660   -14.3540 ca         1 QW4      -0.111000
     14 C17         13.1270    -2.8690   -14.7600 ca         1 QW4      -0.052000
     15 C18         14.4160    -2.3860   -15.0670 ca         1 QW4      -0.106800
     16 C20         13.8150     3.2770   -17.4890 ca         1 QW4      -0.204000
     17 C21         14.1310     4.3830   -18.2640 ca         1 QW4      -0.036000
     18 C22         13.1540     5.3560   -18.4460 ca         1 QW4      -0.099000
     19 C23         11.8950     5.2130   -17.8610 ca         1 QW4      -0.057000
     20 C24         11.5800     4.1060   -17.0810 ca         1 QW4      -0.105000
     21 C25         12.5590     3.1340   -16.8920 ca         1 QW4      -0.005200
     22 N05         12.4620     1.9650   -16.1420 na         1 QW4      -0.163500
     23 N11         16.7850    -2.8830   -15.2650 na         1 QW4      -0.580200
     24 O03         10.5650     0.4310   -17.3920 o          1 QW4      -0.480100
     25 S19         14.8330     1.9080   -17.1130 ss         1 QW4       0.148800
     26 H1          18.0270    -1.3580   -15.8680 h4         1 QW4       0.227000
     27 H2          17.7760    -4.6520   -15.8330 h1         1 QW4       0.076700
     28 H3          18.8200    -3.2720   -15.4370 h1         1 QW4       0.076700
     29 H4          18.0130    -4.1680   -14.1360 h1         1 QW4       0.076700
     30 H5           8.4230    -0.2730   -16.1860 hc         1 QW4       0.074700
     31 H6           9.4150    -0.4500   -14.7150 hc         1 QW4       0.074700
     32 H7           8.5970     1.0760   -15.0210 hc         1 QW4       0.074700
     33 H8          10.7190     2.5140   -15.1550 h1         1 QW4       0.094200
     34 H9          11.5080     1.1150   -14.4890 h1         1 QW4       0.094200
     35 H10         12.6410    -0.4340   -15.2100 ha         1 QW4       0.196000
     36 H12         16.2990     0.2990   -16.0660 ha         1 QW4       0.214000
     37 H13         16.0980    -5.3120   -14.4520 ha         1 QW4       0.136000
     38 H14         13.8390    -6.0680   -13.9210 ha         1 QW4       0.142000
     39 H15         11.9150    -4.5050   -14.1270 ha         1 QW4       0.140000
     40 H16         12.2730    -2.2160   -14.8500 ha         1 QW4       0.127000
     41 H17         15.1090     4.4800   -18.7160 ha         1 QW4       0.140000
     42 H18         13.3730     6.2260   -19.0490 ha         1 QW4       0.140000
     43 H19         11.1420     5.9740   -18.0170 ha         1 QW4       0.138000
     44 H20         10.5960     4.0080   -16.6460 ha         1 QW4       0.132000
@<TRIPOS>BOND
     1     1     9 2   
     2     1    23 1   
     3     1    26 1   
     4     2    23 1   
     5     2    27 1   
     6     2    28 1   
     7     2    29 1   
     8     3     4 1   
     9     3    30 1   
    10     3    31 1   
    11     3    32 1   
    12     4     5 1   
    13     4    24 2   
    14     5    22 1   
    15     5    33 1   
    16     5    34 1   
    17     6     7 1   
    18     6    22 2   
    19     6    25 1   
    20     7     8 2   
    21     7    35 1   
    22     8     9 1   
    23     8    15 1   
    24     9    36 1   
    25    10    11 ar  
    26    10    15 ar  
    27    10    23 1   
    28    11    12 ar  
    29    11    37 1   
    30    12    13 ar  
    31    12    38 1   
    32    13    14 ar  
    33    13    39 1   
    34    14    15 ar  
    35    14    40 1   
    36    16    17 ar  
    37    16    21 ar  
    38    16    25 1   
    39    17    18 ar  
    40    17    41 1   
    41    18    19 ar  
    42    18    42 1   
    43    19    20 ar  
    44    19    43 1   
    45    20    21 ar  
    46    20    44 1   
    47    21    22 1   
@<TRIPOS>SUBSTRUCTURE
     1 QW4         1 TEMP              0 ****  ****    0 ROOT
