@<TRIPOS>MOLECULE
QW5
   34    36     1     0     0
SMALL
bcc


@<TRIPOS>ATOM
      1 C10         17.8420    29.8380    15.4000 cc         1 QW5      -0.121300
      2 C13         20.7650    31.7220    14.4800 ca         1 QW5      -0.136000
      3 C15         19.7360    33.9010    14.6420 ca         1 QW5      -0.003600
      4 C17         18.5160    33.3810    15.0050 ca         1 QW5      -0.061000
      5 C01         12.0480    34.0610    14.7490 c3         1 QW5       0.125700
      6 C03         13.9730    32.8110    15.3500 ca         1 QW5       0.140100
      7 C04         13.4560    32.4860    16.6010 ca         1 QW5      -0.215000
      8 C05         14.2120    31.7060    17.4690 ca         1 QW5      -0.093000
      9 C06         15.4680    31.2480    17.1130 ca         1 QW5      -0.163000
     10 C07         15.9880    31.5650    15.8540 ca         1 QW5       0.000200
     11 C08         15.2380    32.3460    14.9830 ca         1 QW5      -0.155000
     12 C09         17.3310    31.1170    15.4590 cd         1 QW5      -0.051400
     13 N11         19.1600    29.8900    15.0400 na         1 QW5      -0.129400
     14 C12         19.5330    31.1780    14.8480 ca         1 QW5      -0.038200
     15 C14         20.8550    33.0920    14.3770 ca         1 QW5      -0.096000
     16 CL1         19.9180    35.6240    14.5030 cl         1 QW5      -0.119400
     17 C18         18.4070    31.9880    15.1030 ca         1 QW5      -0.097800
     18 C19         17.2600    28.4900    15.6130 c          1 QW5       0.700300
     19 N20         15.9270    28.4040    15.6580 nt         1 QW5      -0.656000
     20 O21         18.0040    27.5230    15.7190 o          1 QW5      -0.623100
     21 H1          21.6240    31.0950    14.2810 ha         1 QW5       0.141000
     22 H2          17.6700    34.0250    15.2050 ha         1 QW5       0.156000
     23 H3          11.7230    34.6390    13.8880 h1         1 QW5       0.041700
     24 H4          11.3280    33.2580    14.9280 h1         1 QW5       0.041700
     25 H5          12.0690    34.7150    15.6240 h1         1 QW5       0.041700
     26 H6          12.4790    32.8270    16.9150 ha         1 QW5       0.137000
     27 H7          13.8090    31.4620    18.4430 ha         1 QW5       0.133000
     28 H8          16.0510    30.6560    17.8060 ha         1 QW5       0.142000
     29 H9          15.6250    32.5910    14.0010 ha         1 QW5       0.154000
     30 H10         19.7430    29.0770    14.9190 hn         1 QW5       0.325700
     31 H11         21.7920    33.5490    14.0930 ha         1 QW5       0.147000
     32 H12         15.4910    27.5090    15.8060 hn         1 QW5       0.326000
     33 H13         15.3240    29.1950    15.5160 hn         1 QW5       0.326000
     34 O02         13.3320    33.5590    14.4340 os         1 QW5      -0.316900
@<TRIPOS>BOND
     1     1    12 2   
     2     1    13 1   
     3     1    18 1   
     4     2    14 ar  
     5     2    15 ar  
     6     2    21 1   
     7     3     4 ar  
     8     3    15 ar  
     9     3    16 1   
    10     4    17 ar  
    11     4    22 1   
    12     5    23 1   
    13     5    24 1   
    14     5    25 1   
    15     5    34 1   
    16     6     7 ar  
    17     6    11 ar  
    18     6    34 1   
    19     7     8 ar  
    20     7    26 1   
    21     8     9 ar  
    22     8    27 1   
    23     9    10 ar  
    24     9    28 1   
    25    10    11 ar  
    26    10    12 1   
    27    11    29 1   
    28    12    17 1   
    29    13    14 1   
    30    13    30 1   
    31    14    17 ar  
    32    15    31 1   
    33    18    19 1   
    34    18    20 2   
    35    19    32 1   
    36    19    33 1   
@<TRIPOS>SUBSTRUCTURE
     1 QW5         1 TEMP              0 ****  ****    0 ROOT
