@<TRIPOS>MOLECULE
QW5
   34    36     1     0     0
SMALL
No Charge or Current Charge


@<TRIPOS>ATOM
      1 C10         17.9160    29.7080    15.4660 cc         1 QW5      -0.121300
      2 C13         20.7900    31.8060    14.6000 ca         1 QW5      -0.118000
      3 C15         19.6180    33.9520    14.4500 ca         1 QW5       0.088000
      4 C17         18.3920    33.3250    14.7580 ca         1 QW5      -0.043000
      5 C01         12.1010    34.2900    14.8470 c3         1 QW5       0.148900
      6 C03         14.0420    32.8520    15.3570 ca         1 QW5       0.140100
      7 C04         13.4830    32.4000    16.5710 ca         1 QW5      -0.197000
      8 C05         14.1910    31.4880    17.3690 ca         1 QW5      -0.075000
      9 C06         15.4510    31.0220    16.9580 ca         1 QW5      -0.145000
     10 C07         16.0170    31.4550    15.7420 ca         1 QW5       0.000200
     11 C08         15.3020    32.3810    14.9560 ca         1 QW5      -0.137000
     12 C09         17.3510    30.9860    15.3100 cd         1 QW5      -0.051400
     13 N11         19.2910    29.8900    15.1970 na         1 QW5      -0.179700
     14 C12         19.5580    31.2110    14.8990 ca         1 QW5      -0.038200
     15 C14         20.8120    33.1980    14.3660 ca         1 QW5      -0.078000
     16 Cl1         19.6640    35.6900    14.1800 cl         1 QW5      -0.211000
     17 C18         18.3980    31.9330    14.9610 ca         1 QW5      -0.097800
     18 C19         17.2350    28.4140    15.7560 c          1 QW5       0.633300
     19 N20         15.8890    28.3920    15.7480 nt         1 QW5      -0.589000
     20 O21         17.8440    27.3740    15.9460 o          1 QW5      -0.623100
     21 H1          21.7040    31.2180    14.5550 ha         1 QW5       0.123000
     22 H2          17.4860    33.9150    14.8430 ha         1 QW5       0.138000
     23 H3          11.7730    34.9780    14.0580 h1         1 QW5       0.041700
     24 H4          11.3530    33.4910    14.9340 h1         1 QW5       0.041700
     25 H5          12.1330    34.8470    15.7920 h1         1 QW5       0.041700
     26 H6          12.5110    32.7460    16.9110 ha         1 QW5       0.119000
     27 H7          13.7680    31.1480    18.3130 ha         1 QW5       0.115000
     28 H8          16.0010    30.3440    17.6070 ha         1 QW5       0.124000
     29 H9          15.7100    32.7160    14.0070 ha         1 QW5       0.136000
     30 H10         19.9850    29.1480    15.2100 hn         1 QW5       0.376000
     31 H11         21.7500    33.6950    14.1320 ha         1 QW5       0.129000
     32 H12         15.4080    27.5230    15.9220 hn         1 QW5       0.326000
     33 H13         15.3760    29.2430    15.5730 hn         1 QW5       0.326000
     34 O02         13.3950    33.7470    14.5290 os         1 QW5      -0.340100
@<TRIPOS>BOND
     1     1    12 2   
     2     1    13 1   
     3     1    18 1   
     4     2    14 ar  
     5     2    15 ar  
     6     2    21 1   
     7     3     4 ar  
     8     3    15 ar  
     9     3    16 1   
    10     4    17 ar  
    11     4    22 1   
    12     5    23 1   
    13     5    24 1   
    14     5    25 1   
    15     5    34 1   
    16     6     7 ar  
    17     6    11 ar  
    18     6    34 1   
    19     7     8 ar  
    20     7    26 1   
    21     8     9 ar  
    22     8    27 1   
    23     9    10 ar  
    24     9    28 1   
    25    10    11 ar  
    26    10    12 1   
    27    11    29 1   
    28    12    17 1   
    29    13    14 1   
    30    13    30 1   
    31    14    17 ar  
    32    15    31 1   
    33    18    19 1   
    34    18    20 2   
    35    19    32 1   
    36    19    33 1   
@<TRIPOS>SUBSTRUCTURE
     1 QW5         1 TEMP              0 ****  ****    0 ROOT
