@<TRIPOS>MOLECULE
QW6
   65    68     1     0     0
SMALL
abcg2


@<TRIPOS>ATOM
      1 C4         -28.9970    -8.4040    -4.2650 ca         1 QW6       0.002000
      2 C5         -27.8980    -9.2260    -3.9930 ca         1 QW6      -0.069000
      3 C6         -26.6100    -8.7280    -4.0790 ca         1 QW6      -0.114000
      4 C7         -30.3040    -8.9530    -4.1080 cg         1 QW6       0.333000
      5 C10        -30.8830    -6.4340    -5.8450 c2         1 QW6       0.105900
      6 N12        -32.0750    -4.3020    -5.3910 n          1 QW6      -0.389800
      7 C13        -31.2160    -3.9890    -4.3940 c          1 QW6       0.569000
      8 C17        -34.3100    -3.7630    -4.5160 c          1 QW6       0.586100
      9 C20        -36.1680    -2.5910    -3.3190 ca         1 QW6      -0.070000
     10 C21        -36.7220    -1.3170    -3.1420 ca         1 QW6      -0.172000
     11 C22        -37.8470    -1.1450    -2.3540 ca         1 QW6      -0.069000
     12 C24        -37.8970    -3.4900    -1.9050 ca         1 QW6      -0.069000
     13 C23        -38.4590    -2.2280    -1.7200 ca         1 QW6      -0.139600
     14 O28        -40.0900    -0.8440    -0.6830 o          1 QW6      -0.724000
     15 O27        -40.2430    -3.0610    -0.3860 o          1 QW6      -0.724000
     16 C25        -36.7650    -3.6860    -2.6870 ca         1 QW6      -0.172000
     17 N19        -35.0350    -2.6790    -4.1430 ns         1 QW6      -0.126000
     18 O18        -34.4750    -4.9020    -4.0970 o          1 QW6      -0.603100
     19 C16        -33.2340    -3.4220    -5.5610 c3         1 QW6       0.026700
     20 C29        -33.7860    -3.4450    -6.9930 c3         1 QW6      -0.072400
     21 C30        -34.9360    -2.4770    -7.2340 c6         1 QW6       0.159300
     22 C31        -35.2920    -2.3810    -8.7140 c6         1 QW6      -0.103400
     23 C32        -36.3860    -1.3380    -8.9440 c6         1 QW6      -0.074400
     24 C33        -35.9850    -0.0070    -8.3060 c6         1 QW6      -0.108400
     25 C34        -35.6050    -0.2200    -6.8500 c6         1 QW6       0.149600
     26 O35        -34.5610    -1.1930    -6.7130 os         1 QW6      -0.479000
     27 C14        -30.0130    -4.8690    -4.1570 c6         1 QW6      -0.096200
     28 O15        -31.3810    -2.9920    -3.6870 o          1 QW6      -0.559000
     29 C11        -32.0360    -5.5390    -6.1600 c6         1 QW6       0.123200
     30 O36        -30.7410    -7.5350    -6.6340 os         1 QW6      -0.362100
     31 C37        -31.9140    -8.1650    -7.1700 c3         1 QW6       0.145900
     32 C9         -29.9580    -6.1580    -4.9220 ce         1 QW6      -0.134400
     33 C3         -28.8200    -7.0580    -4.6430 ca         1 QW6       0.037200
     34 C2         -27.5160    -6.5670    -4.7100 ca         1 QW6      -0.106000
     35 C1         -26.4390    -7.3960    -4.4340 ca         1 QW6       0.139000
     36 CL38       -24.8240    -6.7460    -4.5420 cl         1 QW6      -0.208000
     37 N8         -31.3450    -9.4220    -3.9520 n1         1 QW6      -0.451000
     38 H1         -28.0600   -10.2560    -3.7050 ha         1 QW6       0.127000
     39 H2         -25.7580    -9.3570    -3.8660 ha         1 QW6       0.132000
     40 H3         -36.2620    -0.4660    -3.6300 ha         1 QW6       0.104000
     41 H4         -38.2670    -0.1570    -2.2240 ha         1 QW6       0.130000
     42 H5         -38.3610    -4.3400    -1.4220 ha         1 QW6       0.130000
     43 H7         -36.3470    -4.6710    -2.8130 ha         1 QW6       0.104000
     44 H8         -34.7740    -1.8180    -4.6080 hn         1 QW6       0.155000
     45 H9         -32.8820    -2.4150    -5.3570 h1         1 QW6       0.104700
     46 H10        -34.1430    -4.4410    -7.2590 hc         1 QW6       0.052200
     47 H11        -32.9650    -3.1950    -7.6690 hc         1 QW6       0.052200
     48 H12        -35.8250    -2.8150    -6.6840 h1         1 QW6       0.058700
     49 H13        -35.6110    -3.3650    -9.0680 hc         1 QW6       0.045200
     50 H14        -34.3910    -2.1070    -9.2720 hc         1 QW6       0.045200
     51 H15        -36.5740    -1.2130   -10.0120 hc         1 QW6       0.044700
     52 H16        -37.3210    -1.6880    -8.4920 hc         1 QW6       0.044700
     53 H17        -35.1320     0.4210    -8.8400 hc         1 QW6       0.048200
     54 H18        -36.8030     0.7160    -8.3590 hc         1 QW6       0.048200
     55 H19        -35.2220     0.6920    -6.3930 h1         1 QW6       0.057700
     56 H20        -36.4790    -0.5550    -6.2770 h1         1 QW6       0.057700
     57 H21        -29.9800    -5.0630    -3.0820 hc         1 QW6       0.081700
     58 H22        -29.1370    -4.2450    -4.3680 hc         1 QW6       0.081700
     59 H23        -31.9920    -5.3030    -7.2270 h1         1 QW6       0.065700
     60 H24        -32.9710    -6.0780    -5.9920 h1         1 QW6       0.065700
     61 H25        -31.5590    -9.0620    -7.6690 h1         1 QW6       0.047700
     62 H26        -32.6040    -8.4410    -6.3710 h1         1 QW6       0.047700
     63 H27        -32.4150    -7.5230    -7.8950 h1         1 QW6       0.047700
     64 H28        -27.3390    -5.5400    -4.9950 ha         1 QW6       0.135000
     65 C26        -39.7000    -2.0290    -0.8580 c          1 QW6       0.706600
@<TRIPOS>BOND
     1     1     2 ar  
     2     1     4 1   
     3     1    33 ar  
     4     2     3 ar  
     5     2    38 1   
     6     3    35 ar  
     7     3    39 1   
     8     4    37 3   
     9     5    29 1   
    10     5    30 1   
    11     5    32 2   
    12     6     7 1   
    13     6    19 1   
    14     6    29 1   
    15     7    27 1   
    16     7    28 2   
    17     8    17 1   
    18     8    18 2   
    19     8    19 1   
    20     9    10 ar  
    21     9    16 ar  
    22     9    17 1   
    23    10    11 ar  
    24    10    40 1   
    25    11    13 ar  
    26    11    41 1   
    27    12    13 ar  
    28    12    16 ar  
    29    12    42 1   
    30    13    65 1   
    31    14    65 1   
    32    15    65 1   
    33    16    43 1   
    34    17    44 1   
    35    19    20 1   
    36    19    45 1   
    37    20    21 1   
    38    20    46 1   
    39    20    47 1   
    40    21    22 1   
    41    21    26 1   
    42    21    48 1   
    43    22    23 1   
    44    22    49 1   
    45    22    50 1   
    46    23    24 1   
    47    23    51 1   
    48    23    52 1   
    49    24    25 1   
    50    24    53 1   
    51    24    54 1   
    52    25    26 1   
    53    25    55 1   
    54    25    56 1   
    55    27    32 1   
    56    27    57 1   
    57    27    58 1   
    58    29    59 1   
    59    29    60 1   
    60    30    31 1   
    61    31    61 1   
    62    31    62 1   
    63    31    63 1   
    64    32    33 1   
    65    33    34 ar  
    66    34    35 ar  
    67    34    64 1   
    68    35    36 1   
@<TRIPOS>SUBSTRUCTURE
     1 QW6         1 TEMP              0 ****  ****    0 ROOT
