@<TRIPOS>MOLECULE
QW6
   65    68     1     0     0
SMALL
No Charge or Current Charge


@<TRIPOS>ATOM
      1 C4         -29.4170    -7.9320    -3.4280 ca         1 QW6       0.002000
      2 C5         -28.5350    -8.8460    -2.8160 ca         1 QW6      -0.069000
      3 C6         -27.1850    -8.8970    -3.2050 ca         1 QW6      -0.114000
      4 C7         -30.7890    -7.8860    -2.9940 cg         1 QW6       0.333000
      5 C10        -30.8080    -6.4270    -5.9840 c2         1 QW6       0.105900
      6 N12        -31.8150    -4.0790    -5.8280 n          1 QW6      -0.389800
      7 C13        -30.9510    -3.8920    -4.7300 c          1 QW6       0.569000
      8 C17        -34.1660    -3.8440    -4.8620 c          1 QW6       0.586100
      9 C20        -36.0290    -2.8710    -3.3660 ca         1 QW6      -0.070000
     10 C21        -36.6290    -1.6440    -3.0350 ca         1 QW6      -0.172000
     11 C22        -37.7030    -1.5870    -2.1300 ca         1 QW6      -0.069000
     12 C24        -37.5970    -3.9960    -1.8650 ca         1 QW6      -0.069000
     13 C23        -38.2040    -2.7640    -1.5300 ca         1 QW6      -0.139600
     14 O28        -39.8580    -1.6190    -0.2890 o          1 QW6      -0.724000
     15 O27        -39.7680    -3.7510    -0.0570 o          1 QW6      -0.724000
     16 C25        -36.5230    -4.0500    -2.7710 ca         1 QW6      -0.172000
     17 N19        -34.9510    -2.8450    -4.2940 ns         1 QW6      -0.126000
     18 O18        -34.2820    -5.0400    -4.6100 o          1 QW6      -0.603100
     19 C16        -33.1040    -3.3100    -5.8660 c3         1 QW6       0.026700
     20 C29        -33.6960    -3.1790    -7.3030 c3         1 QW6      -0.072400
     21 C30        -34.9650    -2.2880    -7.4310 c6         1 QW6       0.159300
     22 C31        -35.3750    -2.0420    -8.9060 c6         1 QW6      -0.103400
     23 C32        -36.5730    -1.0640    -8.9780 c6         1 QW6      -0.074400
     24 C33        -36.2760     0.2230    -8.1670 c6         1 QW6      -0.108400
     25 C34        -35.8170    -0.1300    -6.7320 c6         1 QW6       0.149600
     26 O35        -34.6860    -1.0280    -6.7840 os         1 QW6      -0.479000
     27 C14        -29.5990    -4.5990    -4.8280 c6         1 QW6      -0.096200
     28 O15        -31.2900    -3.2780    -3.7280 o          1 QW6      -0.559000
     29 C11        -31.6940    -5.3370    -6.6340 c6         1 QW6       0.123200
     30 O36        -31.0160    -7.7520    -6.3090 os         1 QW6      -0.362100
     31 C37        -31.9100    -8.1370    -7.3720 c3         1 QW6       0.145900
     32 C9         -29.8280    -6.0790    -5.1170 ce         1 QW6      -0.134400
     33 C3         -28.9390    -7.0640    -4.4390 ca         1 QW6       0.037200
     34 C2         -27.5830    -7.1190    -4.8150 ca         1 QW6      -0.106000
     35 C1         -26.7120    -8.0320    -4.2030 ca         1 QW6       0.139000
     36 Cl38       -25.0220    -8.0930    -4.6870 cl         1 QW6      -0.208000
     37 N8         -31.8970    -7.8570    -2.6250 n1         1 QW6      -0.451000
     38 H1         -28.8940    -9.5160    -2.0370 ha         1 QW6       0.127000
     39 H2         -26.5070    -9.6030    -2.7320 ha         1 QW6       0.132000
     40 H3         -36.2630    -0.7220    -3.4820 ha         1 QW6       0.104000
     41 H4         -38.1450    -0.6200    -1.8960 ha         1 QW6       0.130000
     42 H5         -37.9570    -4.9220    -1.4210 ha         1 QW6       0.130000
     43 H7         -36.0920    -5.0200    -2.9940 ha         1 QW6       0.104000
     44 H8         -34.7260    -1.9140    -4.6230 hn         1 QW6       0.155000
     45 H9         -32.8670    -2.2900    -5.5330 h1         1 QW6       0.104700
     46 H10        -33.9440    -4.1730    -7.6930 hc         1 QW6       0.052200
     47 H11        -32.9100    -2.7820    -7.9580 hc         1 QW6       0.052200
     48 H12        -35.7970    -2.7810    -6.9050 h1         1 QW6       0.058700
     49 H13        -35.6370    -2.9930    -9.3890 hc         1 QW6       0.045200
     50 H14        -34.5250    -1.6260    -9.4650 hc         1 QW6       0.045200
     51 H15        -36.7950    -0.8110   -10.0240 hc         1 QW6       0.044700
     52 H16        -37.4720    -1.5520    -8.5750 hc         1 QW6       0.044700
     53 H17        -35.4910     0.8060    -8.6680 hc         1 QW6       0.048200
     54 H18        -37.1680     0.8610    -8.1300 hc         1 QW6       0.048200
     55 H19        -35.5260     0.7830    -6.1940 h1         1 QW6       0.057700
     56 H20        -36.6370    -0.6080    -6.1750 h1         1 QW6       0.057700
     57 H21        -29.0020    -4.4250    -3.9230 hc         1 QW6       0.081700
     58 H22        -29.0840    -4.1990    -5.7110 hc         1 QW6       0.081700
     59 H23        -31.2890    -5.0870    -7.6240 h1         1 QW6       0.065700
     60 H24        -32.7020    -5.7430    -6.7830 h1         1 QW6       0.065700
     61 H25        -31.8650    -9.2220    -7.5280 h1         1 QW6       0.047700
     62 H26        -32.9480    -7.8790    -7.1290 h1         1 QW6       0.047700
     63 H27        -31.6330    -7.6490    -8.3150 h1         1 QW6       0.047700
     64 H28        -27.2080    -6.4550    -5.5890 ha         1 QW6       0.135000
     65 C26        -39.3650    -2.7070    -0.5510 c          1 QW6       0.706600
@<TRIPOS>BOND
     1     1     2 ar  
     2     1     4 1   
     3     1    33 ar  
     4     2     3 ar  
     5     2    38 1   
     6     3    35 ar  
     7     3    39 1   
     8     4    37 3   
     9     5    29 1   
    10     5    30 1   
    11     5    32 2   
    12     6     7 1   
    13     6    19 1   
    14     6    29 1   
    15     7    27 1   
    16     7    28 2   
    17     8    17 1   
    18     8    18 2   
    19     8    19 1   
    20     9    10 ar  
    21     9    16 ar  
    22     9    17 1   
    23    10    11 ar  
    24    10    40 1   
    25    11    13 ar  
    26    11    41 1   
    27    12    13 ar  
    28    12    16 ar  
    29    12    42 1   
    30    13    65 1   
    31    14    65 1   
    32    15    65 1   
    33    16    43 1   
    34    17    44 1   
    35    19    20 1   
    36    19    45 1   
    37    20    21 1   
    38    20    46 1   
    39    20    47 1   
    40    21    22 1   
    41    21    26 1   
    42    21    48 1   
    43    22    23 1   
    44    22    49 1   
    45    22    50 1   
    46    23    24 1   
    47    23    51 1   
    48    23    52 1   
    49    24    25 1   
    50    24    53 1   
    51    24    54 1   
    52    25    26 1   
    53    25    55 1   
    54    25    56 1   
    55    27    32 1   
    56    27    57 1   
    57    27    58 1   
    58    29    59 1   
    59    29    60 1   
    60    30    31 1   
    61    31    61 1   
    62    31    62 1   
    63    31    63 1   
    64    32    33 1   
    65    33    34 ar  
    66    34    35 ar  
    67    34    64 1   
    68    35    36 1   
@<TRIPOS>SUBSTRUCTURE
     1 QW6         1 TEMP              0 ****  ****    0 ROOT
