@<TRIPOS>MOLECULE
QW8
   22    23     1     0     0
SMALL
abcg2


@<TRIPOS>ATOM
      1 C2           5.7720    14.8630    19.8630 ca         1 QW8      -0.298000
      2 C3           5.0920    14.1990    20.8580 ca         1 QW8       0.221600
      3 C4           5.4930    12.8880    21.2530 ca         1 QW8      -0.194000
      4 C6           5.2710    10.8720    22.6080 ca         1 QW8      -0.298000
      5 C7           6.3720    10.2980    21.9380 ca         1 QW8       0.199100
      6 C8           7.0270    10.9930    20.9540 ca         1 QW8      -0.206500
      7 C1           6.8710    14.2610    19.2250 ca         1 QW8       0.199100
      8 O2           4.0560    14.8430    21.4160 oh         1 QW8      -0.554600
      9 C5           4.8490    12.1310    22.2700 ca         1 QW8       0.221600
     10 O3           3.7990    12.7140    22.8890 oh         1 QW8      -0.554600
     11 O4           6.8010     9.0620    22.2500 oh         1 QW8      -0.529600
     12 C9           6.6060    12.2920    20.5920 ca         1 QW8       0.099000
     13 C10          7.2840    12.9990    19.5790 ca         1 QW8      -0.206500
     14 H1           5.4500    15.8600    19.5790 ha         1 QW8       0.122000
     15 H2           4.7590    10.3200    23.3900 ha         1 QW8       0.122000
     16 H3           7.8720    10.5480    20.4430 ha         1 QW8       0.135500
     17 H4           7.1650    15.7770    18.0980 ho         1 QW8       0.467500
     18 H5           3.6500    14.2930    22.1020 ho         1 QW8       0.490000
     19 H6           3.4060    12.1420    23.5600 ho         1 QW8       0.490000
     20 H7           6.2580     8.6760    22.9460 ho         1 QW8       0.467500
     21 H8           8.1310    12.5420    19.0820 ha         1 QW8       0.135500
     22 O1           7.5420    14.9040    18.2520 oh         1 QW8      -0.529600
@<TRIPOS>BOND
     1     1     2 ar  
     2     1     7 ar  
     3     1    14 1   
     4     2     3 ar  
     5     2     8 1   
     6     3     9 ar  
     7     3    12 ar  
     8     4     5 ar  
     9     4     9 ar  
    10     4    15 1   
    11     5     6 ar  
    12     5    11 1   
    13     6    12 ar  
    14     6    16 1   
    15     7    13 ar  
    16     7    22 1   
    17     8    18 1   
    18     9    10 1   
    19    10    19 1   
    20    11    20 1   
    21    12    13 ar  
    22    13    21 1   
    23    17    22 1   
@<TRIPOS>SUBSTRUCTURE
     1 QW8         1 TEMP              0 ****  ****    0 ROOT
