@<TRIPOS>MOLECULE
QW8
   22    23     1     0     0
SMALL
No Charge or Current Charge


@<TRIPOS>ATOM
      1 C2           5.7990    14.8850    19.8340 ca         1 QW8      -0.298000
      2 C3           5.1070    14.2060    20.8440 ca         1 QW8       0.221600
      3 C4           5.4950    12.9010    21.2410 ca         1 QW8      -0.194000
      4 C6           5.2630    10.8800    22.6050 ca         1 QW8      -0.298000
      5 C7           6.3550    10.3060    21.9490 ca         1 QW8       0.199100
      6 C8           7.0220    11.0120    20.9450 ca         1 QW8      -0.206500
      7 C1           6.8860    14.2780    19.2010 ca         1 QW8       0.199100
      8 O2           4.0580    14.8360    21.4300 oh         1 QW8      -0.554600
      9 C5           4.8300    12.1670    22.2590 ca         1 QW8       0.221600
     10 O3           3.7590    12.6810    22.9310 oh         1 QW8      -0.554600
     11 O4           6.7730     9.0580    22.2860 oh         1 QW8      -0.529600
     12 C9           6.5990    12.3030    20.5880 ca         1 QW8       0.099000
     13 C10          7.2870    12.9930    19.5750 ca         1 QW8      -0.206500
     14 H1           5.4820    15.8840    19.5480 ha         1 QW8       0.122000
     15 H2           4.7490    10.3240    23.3850 ha         1 QW8       0.122000
     16 H3           7.8700    10.5550    20.4430 ha         1 QW8       0.135500
     17 H4           7.1320    15.8140    18.1020 ho         1 QW8       0.467500
     18 H5           3.7200    14.1920    22.1020 ho         1 QW8       0.490000
     19 H6           3.4620    12.0080    23.5830 ho         1 QW8       0.490000
     20 H7           6.1900     8.7260    23.0010 ho         1 QW8       0.467500
     21 H8           8.1340    12.5310    19.0760 ha         1 QW8       0.135500
     22 O1           7.5560    14.9380    18.2200 oh         1 QW8      -0.529600
@<TRIPOS>BOND
     1     1     2 ar  
     2     1     7 ar  
     3     1    14 1   
     4     2     3 ar  
     5     2     8 1   
     6     3     9 ar  
     7     3    12 ar  
     8     4     5 ar  
     9     4     9 ar  
    10     4    15 1   
    11     5     6 ar  
    12     5    11 1   
    13     6    12 ar  
    14     6    16 1   
    15     7    13 ar  
    16     7    22 1   
    17     8    18 1   
    18     9    10 1   
    19    10    19 1   
    20    11    20 1   
    21    12    13 ar  
    22    13    21 1   
    23    17    22 1   
@<TRIPOS>SUBSTRUCTURE
     1 QW8         1 TEMP              0 ****  ****    0 ROOT
