@<TRIPOS>MOLECULE
QW9
   50    53     1     0     0
SMALL
No Charge or Current Charge


@<TRIPOS>ATOM
      1 C01         -3.7820    -0.9920     0.7240 ca         1 QW9       0.147100
      2 C03         -2.7090    -2.9430     1.8350 c3         1 QW9       0.143900
      3 C07         -4.9420    -0.3880     0.1480 ca         1 QW9       0.047100
      4 C09         -6.5030    -2.3290     0.5130 c3         1 QW9       0.149900
      5 C13         -4.8480     0.9250    -0.3720 ca         1 QW9       0.147100
      6 C15         -6.0030     2.8260    -1.4700 c3         1 QW9       0.143900
      7 C19         -3.6210     1.6220    -0.3360 ca         1 QW9      -0.187000
      8 C21         -2.4650     1.0270     0.2030 ca         1 QW9      -0.088600
      9 C22         -2.5650    -0.2700     0.7500 ca         1 QW9      -0.187000
     10 C24         -1.1660     1.8170     0.2390 c          1 QW9       0.627300
     11 C26          2.2740     0.5000    -0.0530 cc         1 QW9       0.528300
     12 C28          0.1150     1.0830     0.0940 cc         1 QW9      -0.315600
     13 C29          0.2500    -0.1460    -0.4940 cd         1 QW9       0.303900
     14 C33          4.8480    -0.2150    -0.1850 ca         1 QW9      -0.057800
     15 C34          5.9650     0.4900     0.2070 ca         1 QW9      -0.053200
     16 C35          3.7090     0.6530     0.1180 cc         1 QW9      -0.211000
     17 C36          4.2390     1.8210     0.6750 cd         1 QW9      -0.147100
     18 C40          7.2630    -0.0180     0.0750 ca         1 QW9      -0.135000
     19 C42          7.4250    -1.2970    -0.4800 ca         1 QW9      -0.082000
     20 C44          6.2960    -2.0360    -0.8860 ca         1 QW9      -0.143000
     21 C46          4.9870    -1.5140    -0.7480 ca         1 QW9      -0.008300
     22 C47          3.8280    -2.3810    -1.2120 c3         1 QW9      -0.051800
     23 N27          1.4150     1.5060     0.3230 na         1 QW9      -0.262500
     24 N31          1.5800    -0.5050    -0.5570 nd         1 QW9      -0.681000
     25 N38          5.6420     1.7240     0.7310 na         1 QW9      -0.209700
     26 O02         -3.8440    -2.2680     1.2620 os         1 QW9      -0.322600
     27 O08         -6.1960    -0.9980     0.0610 os         1 QW9      -0.330100
     28 O14         -5.9870     1.4990    -0.9150 os         1 QW9      -0.322600
     29 O25         -1.1700     3.0220     0.4650 o          1 QW9      -0.547100
     30 H1          -1.9070    -3.0570     1.0940 h1         1 QW9       0.044033
     31 H2          -2.3190    -2.3880     2.6980 h1         1 QW9       0.044033
     32 H3          -2.9980    -3.9430     2.1790 h1         1 QW9       0.044033
     33 H4          -6.3420    -2.4240     1.5940 h1         1 QW9       0.035367
     34 H5          -7.5570    -2.5610     0.3110 h1         1 QW9       0.035367
     35 H6          -5.8910    -3.0730    -0.0120 h1         1 QW9       0.035367
     36 H7          -5.7300     3.5700    -0.7100 h1         1 QW9       0.044033
     37 H8          -5.3030     2.9060    -2.3110 h1         1 QW9       0.044033
     38 H9          -7.0060     3.0710    -1.8390 h1         1 QW9       0.044033
     39 H10         -3.5440     2.6290    -0.7340 ha         1 QW9       0.133000
     40 H11         -1.6870    -0.6990     1.2210 ha         1 QW9       0.133000
     41 H12         -0.5230    -0.7940    -0.8900 h4         1 QW9       0.044100
     42 H13          3.7380     2.7160     1.0370 h4         1 QW9       0.215000
     43 H14          8.1270     0.5610     0.3930 ha         1 QW9       0.114000
     44 H15          8.4220    -1.7180    -0.5950 ha         1 QW9       0.112000
     45 H16          6.4450    -3.0250    -1.3130 ha         1 QW9       0.112000
     46 H17          3.2690    -1.8950    -2.0190 hc         1 QW9       0.050033
     47 H18          4.1740    -3.3440    -1.6070 hc         1 QW9       0.050033
     48 H19          3.1490    -2.6100    -0.3830 hc         1 QW9       0.050033
     49 H20          1.7010     2.3970     0.7050 hn         1 QW9       0.367000
     50 H22          6.2890     2.4220     1.0870 hn         1 QW9       0.354000
@<TRIPOS>BOND
     1     1     3 ar  
     2     1     9 ar  
     3     1    26 1   
     4     2    26 1   
     5     2    30 1   
     6     2    31 1   
     7     2    32 1   
     8     3     5 ar  
     9     3    27 1   
    10     4    27 1   
    11     4    33 1   
    12     4    34 1   
    13     4    35 1   
    14     5     7 ar  
    15     5    28 1   
    16     6    28 1   
    17     6    36 1   
    18     6    37 1   
    19     6    38 1   
    20     7     8 ar  
    21     7    39 1   
    22     8     9 ar  
    23     8    10 1   
    24     9    40 1   
    25    10    12 1   
    26    10    29 2   
    27    11    16 1   
    28    11    23 1   
    29    11    24 2   
    30    12    13 2   
    31    12    23 1   
    32    13    24 1   
    33    13    41 1   
    34    14    15 ar  
    35    14    16 1   
    36    14    21 ar  
    37    15    18 ar  
    38    15    25 1   
    39    16    17 2   
    40    17    25 1   
    41    17    42 1   
    42    18    19 ar  
    43    18    43 1   
    44    19    20 ar  
    45    19    44 1   
    46    20    21 ar  
    47    20    45 1   
    48    21    22 1   
    49    22    46 1   
    50    22    47 1   
    51    22    48 1   
    52    23    49 1   
    53    25    50 1   
@<TRIPOS>SUBSTRUCTURE
     1 QW9         1 TEMP              0 ****  ****    0 ROOT
