@<TRIPOS>MOLECULE
QW9
   50    53     1     0     0
SMALL
abcg2


@<TRIPOS>ATOM
      1 C01         -3.6850    -1.3640     0.1100 ca         1 QW9       0.147100
      2 C03         -2.7350    -3.5160     0.3800 c3         1 QW9       0.143900
      3 C07         -4.8320    -0.6070    -0.1420 ca         1 QW9       0.047100
      4 C09         -6.7930    -1.4150     0.8380 c3         1 QW9       0.149900
      5 C13         -4.7540     0.7900    -0.1980 ca         1 QW9       0.147100
      6 C15         -5.9040     2.8370    -0.5050 c3         1 QW9       0.143900
      7 C19         -3.5310     1.4240    -0.0120 ca         1 QW9      -0.187000
      8 C21         -2.3890     0.6590     0.2070 ca         1 QW9      -0.088600
      9 C22         -2.4570    -0.7280     0.2760 ca         1 QW9      -0.187000
     10 C24         -1.1040     1.3700     0.4320 c          1 QW9       0.627300
     11 C26          2.2870     0.5340    -0.3680 cc         1 QW9       0.528300
     12 C28          0.1170     0.7590    -0.0590 cc         1 QW9      -0.315600
     13 C29          0.3890    -0.2380    -0.9740 cd         1 QW9       0.303900
     14 C33          4.8380    -0.0670    -0.1910 ca         1 QW9      -0.057800
     15 C34          5.9760     0.7680    -0.1240 ca         1 QW9      -0.053200
     16 C35          3.7020     0.8190    -0.2440 cc         1 QW9      -0.211000
     17 C36          4.1990     2.1000    -0.1990 cd         1 QW9      -0.147100
     18 C40          7.2790     0.2810    -0.0500 ca         1 QW9      -0.135000
     19 C42          7.4310    -1.0880    -0.0290 ca         1 QW9      -0.082000
     20 C44          6.3150    -1.9380    -0.0630 ca         1 QW9      -0.143000
     21 C46          5.0150    -1.4650    -0.1340 ca         1 QW9      -0.008300
     22 C47          3.8660    -2.4270    -0.1170 c3         1 QW9      -0.051800
     23 N27          1.3530     1.2340     0.3000 na         1 QW9      -0.262500
     24 N31          1.7180    -0.3630    -1.1610 nd         1 QW9      -0.681000
     25 N38          5.5480     2.0650    -0.1300 na         1 QW9      -0.209700
     26 O02         -3.8660    -2.6920     0.1720 os         1 QW9      -0.322600
     27 O08         -6.0190    -1.2290    -0.3430 os         1 QW9      -0.330100
     28 O14         -5.9110     1.4240    -0.4410 os         1 QW9      -0.322600
     29 O25         -1.0710     2.4530     0.9970 o          1 QW9      -0.547100
     30 H1          -1.9880    -3.3870    -0.4060 h1         1 QW9       0.044033
     31 H2          -2.2660    -3.3290     1.3490 h1         1 QW9       0.044033
     32 H3          -3.0950    -4.5420     0.3590 h1         1 QW9       0.044033
     33 H4          -7.0730    -0.4620     1.2910 h1         1 QW9       0.035367
     34 H5          -7.6980    -1.9430     0.5450 h1         1 QW9       0.035367
     35 H6          -6.2610    -2.0160     1.5780 h1         1 QW9       0.035367
     36 H7          -5.5850     3.2880     0.4380 h1         1 QW9       0.044033
     37 H8          -5.2630     3.2070    -1.3090 h1         1 QW9       0.044033
     38 H9          -6.9280     3.1400    -0.7080 h1         1 QW9       0.044033
     39 H10         -3.4470     2.5010    -0.0510 ha         1 QW9       0.133000
     40 H11         -1.5670    -1.2970     0.5020 ha         1 QW9       0.133000
     41 H12         -0.3170    -0.8380    -1.5260 h4         1 QW9       0.044100
     42 H13          3.6700     3.0390    -0.2410 h4         1 QW9       0.215000
     43 H14          8.1280     0.9510    -0.0040 ha         1 QW9       0.114000
     44 H15          8.4230    -1.5180     0.0290 ha         1 QW9       0.112000
     45 H16          6.4750    -3.0090    -0.0210 ha         1 QW9       0.112000
     46 H17          3.2640    -2.3560    -1.0220 hc         1 QW9       0.050033
     47 H18          4.2270    -3.4500    -0.0200 hc         1 QW9       0.050033
     48 H19          3.1920    -2.2310     0.7180 hc         1 QW9       0.050033
     49 H20          1.5240     1.9480     0.9930 hn         1 QW9       0.367000
     50 H22          6.1440     2.8770    -0.1020 hn         1 QW9       0.354000
@<TRIPOS>BOND
     1     1     3 ar  
     2     1     9 ar  
     3     1    26 1   
     4     2    26 1   
     5     2    30 1   
     6     2    31 1   
     7     2    32 1   
     8     3     5 ar  
     9     3    27 1   
    10     4    27 1   
    11     4    33 1   
    12     4    34 1   
    13     4    35 1   
    14     5     7 ar  
    15     5    28 1   
    16     6    28 1   
    17     6    36 1   
    18     6    37 1   
    19     6    38 1   
    20     7     8 ar  
    21     7    39 1   
    22     8     9 ar  
    23     8    10 1   
    24     9    40 1   
    25    10    12 1   
    26    10    29 2   
    27    11    16 1   
    28    11    23 1   
    29    11    24 2   
    30    12    13 2   
    31    12    23 1   
    32    13    24 1   
    33    13    41 1   
    34    14    15 ar  
    35    14    16 1   
    36    14    21 ar  
    37    15    18 ar  
    38    15    25 1   
    39    16    17 2   
    40    17    25 1   
    41    17    42 1   
    42    18    19 ar  
    43    18    43 1   
    44    19    20 ar  
    45    19    44 1   
    46    20    21 ar  
    47    20    45 1   
    48    21    22 1   
    49    22    46 1   
    50    22    47 1   
    51    22    48 1   
    52    23    49 1   
    53    25    50 1   
@<TRIPOS>SUBSTRUCTURE
     1 QW9         1 TEMP              0 ****  ****    0 ROOT
