@<TRIPOS>MOLECULE
QWB
   26    28     1     0     0
SMALL
bcc


@<TRIPOS>ATOM
      1 C1          23.8930     0.6200    -9.0520 ca         1 QWB      -0.082800
      2 C2          24.9060     1.6000    -8.7990 cc         1 QWB      -0.187400
      3 C3          23.1350     0.5010    -7.8670 ca         1 QWB      -0.050200
      4 C8          22.0560    -0.3750    -7.7610 ca         1 QWB      -0.144000
      5 C9          22.4850    -1.0320   -10.0610 ca         1 QWB      -0.152000
      6 C11         21.7440    -1.1360    -8.8710 ca         1 QWB      -0.106000
      7 C12         25.7310     2.5440   -12.2160 cc         1 QWB      -0.274600
      8 C13         24.3950     3.6670   -10.9060 cc         1 QWB       0.396400
      9 C14         24.9440     3.3920   -12.9430 cd         1 QWB       0.294200
     10 C4          23.5530    -0.1630   -10.1620 ca         1 QWB      -0.074000
     11 C5          25.9470     2.0720    -9.7490 c3         1 QWB       0.127500
     12 C6          24.7220     2.0230    -7.5130 cd         1 QWB      -0.086100
     13 N7          23.6680     1.3650    -6.9530 na         1 QWB      -0.167400
     14 N10         25.3670     2.7310   -10.9130 na         1 QWB      -0.186900
     15 N15         24.1130     4.0890   -12.1140 nd         1 QWB      -0.680000
     16 H1          21.4850    -0.4560    -6.8460 ha         1 QWB       0.132000
     17 H2          22.2090    -1.6450   -10.9090 ha         1 QWB       0.132000
     18 H3          20.9120    -1.8260    -8.8240 ha         1 QWB       0.130000
     19 H5          23.9250     4.0010    -9.9930 h5         1 QWB       0.054100
     20 H6          24.9310     3.5290   -14.0130 h4         1 QWB       0.034100
     21 H7          24.1160    -0.0900   -11.0840 ha         1 QWB       0.138000
     22 H8          26.5420     1.2390   -10.1270 h1         1 QWB       0.058200
     23 H9          26.6360     2.7570    -9.2500 h1         1 QWB       0.058200
     24 H10         25.2790     2.7560    -6.9490 h4         1 QWB       0.164000
     25 H11         23.3380     1.4990    -6.0120 hn         1 QWB       0.302700
     26 H4          26.4950     1.8400   -12.5020 h4         1 QWB       0.169000
@<TRIPOS>BOND
     1     1     2 1   
     2     1     3 ar  
     3     1    10 ar  
     4     2    11 1   
     5     2    12 2   
     6     3     4 ar  
     7     3    13 1   
     8     4     6 ar  
     9     4    16 1   
    10     5     6 ar  
    11     5    10 ar  
    12     5    17 1   
    13     6    18 1   
    14     7     9 2   
    15     7    14 1   
    16     7    26 1   
    17     8    14 1   
    18     8    15 2   
    19     8    19 1   
    20     9    15 1   
    21     9    20 1   
    22    10    21 1   
    23    11    14 1   
    24    11    22 1   
    25    11    23 1   
    26    12    13 1   
    27    12    24 1   
    28    13    25 1   
@<TRIPOS>SUBSTRUCTURE
     1 QWB         1 TEMP              0 ****  ****    0 ROOT
