@<TRIPOS>MOLECULE
QWB
   26    28     1     0     0
SMALL
No Charge or Current Charge


@<TRIPOS>ATOM
      1 C1          23.8800     0.6180    -9.0000 ca         1 QWB      -0.082800
      2 C2          24.9170     1.5860    -8.7790 cc         1 QWB      -0.187400
      3 C3          23.1510     0.5180    -7.8490 ca         1 QWB      -0.050200
      4 C8          22.0550    -0.3510    -7.7520 ca         1 QWB      -0.126000
      5 C9          22.4770    -1.0220   -10.0720 ca         1 QWB      -0.134000
      6 C11         21.7200    -1.1290    -8.8810 ca         1 QWB      -0.088000
      7 C12         25.7850     2.5920   -12.2540 cc         1 QWB      -0.242000
      8 C13         24.3170     3.5990   -10.9230 cc         1 QWB       0.396400
      9 C14         24.9560     3.4110   -12.9760 cd         1 QWB       0.228900
     10 C4          23.5750    -0.1380   -10.1410 ca         1 QWB      -0.056000
     11 C5          25.9550     2.0330    -9.7770 c3         1 QWB       0.156800
     12 C6          24.7530     2.0300    -7.4690 cd         1 QWB      -0.136100
     13 N7          23.6500     1.3660    -6.8780 na         1 QWB      -0.217700
     14 N10         25.3760     2.7150   -10.9430 na         1 QWB      -0.165500
     15 N15         24.0470     4.0360   -12.1470 nd         1 QWB      -0.680000
     16 H1          21.4790    -0.4260    -6.8330 ha         1 QWB       0.114000
     17 H2          22.2130    -1.6240   -10.9380 ha         1 QWB       0.114000
     18 H3          20.8750    -1.8130    -8.8360 ha         1 QWB       0.112000
     19 H5          23.8030     3.8750   -10.0100 h5         1 QWB       0.054100
     20 H6          24.9640     3.5860   -14.0460 h4         1 QWB       0.034100
     21 H7          24.1630    -0.0470   -11.0510 ha         1 QWB       0.120000
     22 H8          26.5190     1.1570   -10.1230 h1         1 QWB       0.058200
     23 H9          26.6620     2.7160    -9.2890 h1         1 QWB       0.058200
     24 H10         25.3350     2.7670    -6.9190 h4         1 QWB       0.214000
     25 H11         23.2960     1.4890    -5.9340 hn         1 QWB       0.353000
     26 H4          26.6040     1.9580   -12.5700 h4         1 QWB       0.151000
@<TRIPOS>BOND
     1     1     2 1   
     2     1     3 ar  
     3     1    10 ar  
     4     2    11 1   
     5     2    12 2   
     6     3     4 ar  
     7     3    13 1   
     8     4     6 ar  
     9     4    16 1   
    10     5     6 ar  
    11     5    10 ar  
    12     5    17 1   
    13     6    18 1   
    14     7     9 2   
    15     7    14 1   
    16     7    26 1   
    17     8    14 1   
    18     8    15 2   
    19     8    19 1   
    20     9    15 1   
    21     9    20 1   
    22    10    21 1   
    23    11    14 1   
    24    11    22 1   
    25    11    23 1   
    26    12    13 1   
    27    12    24 1   
    28    13    25 1   
@<TRIPOS>SUBSTRUCTURE
     1 QWB         1 TEMP              0 ****  ****    0 ROOT
