@<TRIPOS>MOLECULE
QWC
   50    53     1     0     0
SMALL
abcg2


@<TRIPOS>ATOM
      1 C02        -43.7020   -29.4680     2.9710 c          1 QWC       0.722000
      2 C03        -44.4640   -29.2220     1.6390 c5         1 QWC      -0.204700
      3 C04        -43.7430   -29.9600     0.4780 c5         1 QWC      -0.005100
      4 C05        -44.4980   -31.2600     0.3790 ca         1 QWC      -0.089300
      5 C06        -44.1230   -32.4490    -0.2360 ca         1 QWC       0.128100
      6 C08        -44.9920   -33.5420    -0.1960 ca         1 QWC      -0.210000
      7 C09        -46.2230   -33.4360     0.4490 ca         1 QWC      -0.093000
      8 C10        -46.6100   -32.2440     1.0590 ca         1 QWC      -0.116000
      9 C11        -45.7330   -31.1710     1.0110 ca         1 QWC      -0.047300
     10 C12        -45.9150   -29.7680     1.5580 c5         1 QWC       0.159000
     11 C15        -48.5460   -29.4010     4.2560 ca         1 QWC      -0.278600
     12 C16        -49.9470   -29.2750     4.3890 ca         1 QWC       0.234100
     13 C18        -50.5520   -29.2310     5.6450 ca         1 QWC      -0.218000
     14 C19        -49.7760   -29.2970     6.7980 ca         1 QWC       0.042000
     15 C21        -51.6060   -29.1070     8.4950 c          1 QWC       0.659100
     16 C23        -53.0300   -28.8260    10.4560 cx         1 QWC       0.066700
     17 C24        -53.9770   -29.9840    10.6040 cx         1 QWC      -0.135900
     18 C25        -53.2580   -29.4340    11.8070 cx         1 QWC      -0.135900
     19 C27        -48.3760   -29.4110     6.6800 ca         1 QWC      -0.239000
     20 C28        -47.7900   -29.4600     5.4360 ca         1 QWC       0.004000
     21 N13        -46.6370   -29.6870     2.8080 ns         1 QWC      -0.450900
     22 N20        -50.2910   -29.2500     8.0900 ns         1 QWC      -0.162000
     23 N22        -51.7520   -29.0460     9.8490 ns         1 QWC      -0.509900
     24 O01        -42.5520   -28.9770     3.0260 o          1 QWC      -0.725000
     25 O07        -42.9030   -32.4990    -0.8520 oh         1 QWC      -0.539100
     26 O17        -50.7500   -29.1950     3.3100 oh         1 QWC      -0.578100
     27 O26        -52.5570   -29.0530     7.7200 o          1 QWC      -0.611100
     28 O29        -48.6650   -29.3050     1.8830 o          1 QWC      -0.708100
     29 O30        -44.2620   -30.1250     3.8950 o          1 QWC      -0.725000
     30 H031       -44.4540   -28.1440     1.4780 hc         1 QWC       0.054700
     31 H042       -43.8350   -29.3940    -0.4550 hc         1 QWC       0.055200
     32 H041       -42.6790   -30.0860     0.6740 hc         1 QWC       0.055200
     33 H081       -44.6990   -34.4740    -0.6660 ha         1 QWC       0.094000
     34 H091       -46.8810   -34.2960     0.4720 ha         1 QWC       0.097000
     35 H101       -47.5660   -32.1630     1.5600 ha         1 QWC       0.120000
     36 H121       -46.4680   -29.1810     0.8220 h1         1 QWC       0.063700
     37 H181       -51.6230   -29.1420     5.7060 ha         1 QWC       0.157000
     38 H231       -53.4690   -27.8530    10.2660 h1         1 QWC       0.083700
     39 H241       -55.0340   -29.7820    10.4960 hc         1 QWC       0.076700
     40 H242       -53.6460   -30.9370    10.2150 hc         1 QWC       0.076700
     41 H252       -53.8190   -28.8550    12.5280 hc         1 QWC       0.076700
     42 H251       -52.4520   -30.0250    12.2230 hc         1 QWC       0.076700
     43 H271       -47.7660   -29.4530     7.5730 ha         1 QWC       0.108000
     44 H281       -46.7120   -29.5340     5.3880 ha         1 QWC       0.146000
     45 H131       -46.0390   -29.9000     3.6060 hn         1 QWC       0.387500
     46 H201       -49.5990   -29.3170     8.8220 hn         1 QWC       0.142000
     47 H221       -50.9350   -28.9340    10.4290 hn         1 QWC       0.310500
     48 H071       -42.7500   -33.3840    -1.2110 ho         1 QWC       0.445000
     49 H171       -50.1310   -29.2100     2.5230 ho         1 QWC       0.529000
     50 C14        -47.9470   -29.4630     2.9060 c          1 QWC       0.615700
@<TRIPOS>BOND
     1     1     2 1   
     2     1    24 1   
     3     1    29 1   
     4     2     3 1   
     5     2    10 1   
     6     2    30 1   
     7     3     4 1   
     8     3    31 1   
     9     3    32 1   
    10     4     5 ar  
    11     4     9 ar  
    12     5     6 ar  
    13     5    25 1   
    14     6     7 ar  
    15     6    33 1   
    16     7     8 ar  
    17     7    34 1   
    18     8     9 ar  
    19     8    35 1   
    20     9    10 1   
    21    10    21 1   
    22    10    36 1   
    23    11    12 ar  
    24    11    20 ar  
    25    11    50 1   
    26    12    13 ar  
    27    12    26 1   
    28    13    14 ar  
    29    13    37 1   
    30    14    19 ar  
    31    14    22 1   
    32    15    22 1   
    33    15    23 1   
    34    15    27 2   
    35    16    17 1   
    36    16    18 1   
    37    16    23 1   
    38    16    38 1   
    39    17    18 1   
    40    17    39 1   
    41    17    40 1   
    42    18    41 1   
    43    18    42 1   
    44    19    20 ar  
    45    19    43 1   
    46    20    44 1   
    47    21    45 1   
    48    21    50 1   
    49    22    46 1   
    50    23    47 1   
    51    25    48 1   
    52    26    49 1   
    53    28    50 2   
@<TRIPOS>SUBSTRUCTURE
     1 QWC         1 TEMP              0 ****  ****    0 ROOT
