@<TRIPOS>MOLECULE
QWC
   50    53     1     0     0
SMALL
No Charge or Current Charge


@<TRIPOS>ATOM
      1 C02        -44.6060   -29.1020     2.8420 c          1 QWC       0.722000
      2 C03        -45.1210   -29.2310     1.3800 c5         1 QWC      -0.204700
      3 C04        -43.9640   -29.8260     0.4770 c5         1 QWC      -0.005100
      4 C05        -44.3540   -31.2830     0.4050 ca         1 QWC      -0.089300
      5 C06        -43.5510   -32.3520    -0.0310 ca         1 QWC       0.128100
      6 C08        -44.0860   -33.6530    -0.0360 ca         1 QWC      -0.210000
      7 C09        -45.4130   -33.8740     0.3880 ca         1 QWC      -0.093000
      8 C10        -46.2060   -32.7930     0.8170 ca         1 QWC      -0.116000
      9 C11        -45.6530   -31.5010     0.8230 ca         1 QWC      -0.047300
     10 C12        -46.3530   -30.2280     1.2220 c5         1 QWC       0.159000
     11 C15        -48.6970   -29.4070     4.1280 ca         1 QWC      -0.278600
     12 C16        -49.7510   -28.5240     4.4460 ca         1 QWC       0.234100
     13 C18        -50.3560   -28.5370     5.7090 ca         1 QWC      -0.218000
     14 C19        -49.9250   -29.4370     6.7010 ca         1 QWC       0.042000
     15 C21        -51.5140   -28.8120     8.6140 c          1 QWC       0.659100
     16 C23        -52.7270   -28.6690    10.7820 cx         1 QWC       0.066700
     17 C24        -54.0190   -29.4340    10.9320 cx         1 QWC      -0.135900
     18 C25        -53.0220   -29.4070    12.0640 cx         1 QWC      -0.135900
     19 C27        -48.8750   -30.3170     6.3950 ca         1 QWC      -0.239000
     20 C28        -48.2640   -30.3090     5.1300 ca         1 QWC       0.004000
     21 N13        -47.0540   -30.2750     2.5090 ns         1 QWC      -0.450900
     22 N20        -50.4870   -29.5100     8.0030 ns         1 QWC      -0.162000
     23 N22        -51.7240   -29.2190     9.9120 ns         1 QWC      -0.509900
     24 O01        -44.5810   -27.9910     3.3490 o          1 QWC      -0.725000
     25 O07        -42.2710   -32.1410    -0.4490 oh         1 QWC      -0.539100
     26 O17        -50.2010   -27.6380     3.5210 oh         1 QWC      -0.578100
     27 O26        -52.1810   -27.9280     8.0930 o          1 QWC      -0.611100
     28 O29        -48.4470   -28.5720     1.9070 o          1 QWC      -0.708100
     29 O30        -44.2230   -30.0930     3.4490 o          1 QWC      -0.725000
     30 H031       -45.4000   -28.2280     1.0400 hc         1 QWC       0.054700
     31 H042       -43.9640   -29.3730    -0.5210 hc         1 QWC       0.055200
     32 H041       -42.9680   -29.6670     0.9050 hc         1 QWC       0.055200
     33 H081       -43.4830   -34.4950    -0.3680 ha         1 QWC       0.094000
     34 H091       -45.8260   -34.8810     0.3800 ha         1 QWC       0.097000
     35 H101       -47.2320   -32.9560     1.1370 ha         1 QWC       0.120000
     36 H121       -47.0070   -29.9170     0.3950 h1         1 QWC       0.063700
     37 H181       -51.1620   -27.8360     5.8960 ha         1 QWC       0.157000
     38 H231       -52.7680   -27.5780    10.7960 h1         1 QWC       0.083700
     39 H241       -54.9340   -28.8580    11.0460 hc         1 QWC       0.076700
     40 H242       -54.1310   -30.3610    10.3740 hc         1 QWC       0.076700
     41 H252       -53.2660   -28.8130    12.9410 hc         1 QWC       0.076700
     42 H251       -52.4670   -30.3190    12.2730 hc         1 QWC       0.076700
     43 H271       -48.5240   -31.0200     7.1470 ha         1 QWC       0.108000
     44 H281       -47.4540   -31.0140     4.9550 ha         1 QWC       0.146000
     45 H131       -46.7740   -30.8860     3.2620 hn         1 QWC       0.387500
     46 H201       -50.0500   -30.2070     8.5910 hn         1 QWC       0.142000
     47 H221       -51.1200   -29.9540    10.2600 hn         1 QWC       0.310500
     48 H071       -41.8870   -33.0050    -0.7080 ho         1 QWC       0.445000
     49 H171       -49.6270   -27.8090     2.7200 ho         1 QWC       0.529000
     50 C14        -48.0630   -29.3710     2.7550 c          1 QWC       0.615700
@<TRIPOS>BOND
     1     1     2 1   
     2     1    24 1   
     3     1    29 1   
     4     2     3 1   
     5     2    10 1   
     6     2    30 1   
     7     3     4 1   
     8     3    31 1   
     9     3    32 1   
    10     4     5 ar  
    11     4     9 ar  
    12     5     6 ar  
    13     5    25 1   
    14     6     7 ar  
    15     6    33 1   
    16     7     8 ar  
    17     7    34 1   
    18     8     9 ar  
    19     8    35 1   
    20     9    10 1   
    21    10    21 1   
    22    10    36 1   
    23    11    12 ar  
    24    11    20 ar  
    25    11    50 1   
    26    12    13 ar  
    27    12    26 1   
    28    13    14 ar  
    29    13    37 1   
    30    14    19 ar  
    31    14    22 1   
    32    15    22 1   
    33    15    23 1   
    34    15    27 2   
    35    16    17 1   
    36    16    18 1   
    37    16    23 1   
    38    16    38 1   
    39    17    18 1   
    40    17    39 1   
    41    17    40 1   
    42    18    41 1   
    43    18    42 1   
    44    19    20 ar  
    45    19    43 1   
    46    20    44 1   
    47    21    45 1   
    48    21    50 1   
    49    22    46 1   
    50    23    47 1   
    51    25    48 1   
    52    26    49 1   
    53    28    50 2   
@<TRIPOS>SUBSTRUCTURE
     1 QWC         1 TEMP              0 ****  ****    0 ROOT
