@<TRIPOS>MOLECULE
QWE
   82    85     1     0     0
SMALL
bcc


@<TRIPOS>ATOM
      1 C1          -1.6110    -2.8790    -0.4470 ca         1 QWE      -0.305500
      2 C2          -2.0980    -3.1510    -1.6990 ca         1 QWE      -0.012000
      3 C3          -1.2180    -3.4710    -2.7430 ca         1 QWE      -0.180000
      4 C4           0.1280    -3.5130    -2.5130 ca         1 QWE      -0.033000
      5 C4A          0.6610    -3.2770    -1.2260 ca         1 QWE      -0.068000
      6 C5           2.0750    -3.3300    -1.0080 ca         1 QWE       0.147600
      7 C6           2.5700    -2.9960     0.2300 ca         1 QWE      -0.185000
      8 C7           1.7010    -2.6670     1.2820 ca         1 QWE      -0.062000
      9 C8           0.3450    -2.6610     1.1150 ca         1 QWE      -0.168000
     10 C8A         -0.2150    -2.9420    -0.1530 ca         1 QWE       0.056000
     11 N            2.9010    -3.6990    -2.0820 nh         1 QWE      -0.645000
     12 CM1          4.2480    -3.1710    -2.0680 c3         1 QWE       0.167100
     13 CM2          2.8900    -5.1220    -2.3890 c3         1 QWE       0.167100
     14 S           -2.8120    -2.4100     0.7860 sy         1 QWE       1.298200
     15 O1S         -4.1060    -2.3960     0.1240 o          1 QWE      -0.611800
     16 O2S         -2.6400    -3.2250     1.9790 o          1 QWE      -0.611800
     17 N1          -2.4770    -0.8700     1.2430 n7         1 QWE      -0.840100
     18 CA          -2.2900     0.1800     0.2550 c3         1 QWE       0.151500
     19 C           -0.8390     0.6850     0.3780 c          1 QWE       0.642100
     20 O           -0.2710     0.5080     1.4460 o          1 QWE      -0.586100
     21 CB          -3.2480     1.3490     0.5080 c3         1 QWE      -0.069400
     22 CG          -4.7100     0.9470     0.4100 c3         1 QWE      -0.093400
     23 CD          -5.6150     2.1420     0.6560 c3         1 QWE       0.030300
     24 NE          -7.0060     1.7310     0.5830 nu         1 QWE      -0.403100
     25 CZ          -8.0390     2.5550     0.6970 cz         1 QWE       0.528300
     26 NH1         -7.8430     3.8470     0.9230 nv         1 QWE      -0.512200
     27 NH2         -9.2740     2.0880     0.5710 nv         1 QWE      -0.512200
     28 N11         -0.3070     1.3730    -0.6510 n          1 QWE      -0.441800
     29 C21          1.1210     1.7440    -0.6790 c6         1 QWE       0.103700
     30 C31          1.8920     0.5660    -1.2760 c6         1 QWE      -0.105400
     31 C41          1.3840     0.2530    -2.6820 c6         1 QWE      -0.075400
     32 C51         -0.1350     0.1090    -2.7300 c6         1 QWE      -0.109400
     33 C61         -0.8260     1.2600    -2.0120 c6         1 QWE       0.084000
     34 C9           1.7060     2.2900     0.6220 c3         1 QWE      -0.064400
     35 C10          2.9370     3.1370     0.3250 c3         1 QWE      -0.168400
     36 S1           5.5680     5.2290     2.7310 ss         1 QWE      -0.046300
     37 O2           3.1370     3.5760     2.6760 o          1 QWE      -0.512100
     38 C52          6.7600     5.8620     1.6940 cc         1 QWE      -0.213400
     39 C22          4.8060     4.5070     1.3640 cc         1 QWE       0.302900
     40 C2'1         3.5730     3.7150     1.5550 c          1 QWE       0.505600
     41 C42          6.5080     5.4900     0.4050 cd         1 QWE       0.335200
     42 N3           5.4020     4.7260     0.2320 nd         1 QWE      -0.617000
     43 H2          -3.1580    -3.1030    -1.9020 ha         1 QWE       0.156000
     44 H3          -1.6110    -3.6530    -3.7340 ha         1 QWE       0.142000
     45 H4           0.8040    -3.7000    -3.3340 ha         1 QWE       0.155000
     46 H6           3.6360    -3.0080     0.4170 ha         1 QWE       0.143000
     47 H7           2.1160    -2.4340     2.2530 ha         1 QWE       0.145000
     48 H8          -0.2740    -2.4570     1.9730 ha         1 QWE       0.144000
     49 HM11         4.9060    -3.6500    -1.3300 h1         1 QWE       0.040367
     50 HM12         4.6940    -3.3250    -3.0500 h1         1 QWE       0.040367
     51 HM13         4.2340    -2.0990    -1.8690 h1         1 QWE       0.040367
     52 HM21         1.8740    -5.5130    -2.4170 h1         1 QWE       0.040367
     53 HM22         3.3370    -5.2880    -3.3700 h1         1 QWE       0.040367
     54 HM23         3.4550    -5.7080    -1.6520 h1         1 QWE       0.040367
     55 H           -1.8170    -0.8030     2.0140 hn         1 QWE       0.468800
     56 HA          -2.4940    -0.2320    -0.7350 h1         1 QWE       0.070700
     57 HB2         -3.0370     1.7630     1.4980 hc         1 QWE       0.060200
     58 HB3         -3.0330     2.1410    -0.2140 hc         1 QWE       0.060200
     59 HG2         -4.9190     0.5320    -0.5800 hc         1 QWE       0.075200
     60 HG3         -4.9290     0.1670     1.1410 hc         1 QWE       0.075200
     61 HD2         -5.4000     2.5680     1.6400 h1         1 QWE       0.063700
     62 HD3         -5.4190     2.9150    -0.0930 h1         1 QWE       0.063700
     63 HE          -7.2020     0.7510     0.4470 hn         1 QWE       0.329700
     64 HH11        -6.9320     4.2180     1.1310 hn         1 QWE       0.327950
     65 HH12        -8.6210     4.4730     1.0390 hn         1 QWE       0.327950
     66 HH21        -9.4480     1.1230     0.3460 hn         1 QWE       0.327950
     67 HH22       -10.0750     2.6830     0.6960 hn         1 QWE       0.327950
     68 H21          1.1640     2.5680    -1.4010 h1         1 QWE       0.052700
     69 H31          2.9590     0.7950    -1.3170 hc         1 QWE       0.060700
     70 H32          1.7840    -0.3020    -0.6170 hc         1 QWE       0.060700
     71 H41          1.6870     1.0630    -3.3530 hc         1 QWE       0.052200
     72 H42          1.8550    -0.6580    -3.0580 hc         1 QWE       0.052200
     73 H51         -0.4810     0.0600    -3.7650 hc         1 QWE       0.054200
     74 H52         -0.4320    -0.8290    -2.2550 hc         1 QWE       0.054200
     75 H61         -1.9070     1.1390    -2.0180 h1         1 QWE       0.051700
     76 H62         -0.6280     2.2070    -2.5190 h1         1 QWE       0.051700
     77 H1'1         0.9630     2.9090     1.1270 hc         1 QWE       0.072700
     78 H1'2         1.9670     1.4800     1.3000 hc         1 QWE       0.072700
     79 H2'1         3.7030     2.5710    -0.2130 hc         1 QWE       0.077700
     80 H2'2         2.6880     3.9710    -0.3410 hc         1 QWE       0.077700
     81 H43          7.1190     5.7600    -0.4440 h4         1 QWE       0.048100
     82 H5           7.5750     6.4640     2.0630 h4         1 QWE       0.186000
@<TRIPOS>BOND
     1     1     2 ar  
     2     1    10 ar  
     3     1    14 1   
     4     2     3 ar  
     5     2    43 1   
     6     3     4 ar  
     7     3    44 1   
     8     4     5 ar  
     9     4    45 1   
    10     5     6 ar  
    11     5    10 ar  
    12     6     7 ar  
    13     6    11 1   
    14     7     8 ar  
    15     7    46 1   
    16     8     9 ar  
    17     8    47 1   
    18     9    10 ar  
    19     9    48 1   
    20    11    12 1   
    21    11    13 1   
    22    12    49 1   
    23    12    50 1   
    24    12    51 1   
    25    13    52 1   
    26    13    53 1   
    27    13    54 1   
    28    14    15 2   
    29    14    16 2   
    30    14    17 1   
    31    17    18 1   
    32    17    55 1   
    33    18    19 1   
    34    18    21 1   
    35    18    56 1   
    36    19    20 2   
    37    19    28 1   
    38    21    22 1   
    39    21    57 1   
    40    21    58 1   
    41    22    23 1   
    42    22    59 1   
    43    22    60 1   
    44    23    24 1   
    45    23    61 1   
    46    23    62 1   
    47    24    25 2   
    48    24    63 1   
    49    25    26 1   
    50    25    27 1   
    51    26    64 1   
    52    26    65 1   
    53    27    66 1   
    54    27    67 1   
    55    28    29 1   
    56    28    33 1   
    57    29    30 1   
    58    29    34 1   
    59    29    68 1   
    60    30    31 1   
    61    30    69 1   
    62    30    70 1   
    63    31    32 1   
    64    31    71 1   
    65    31    72 1   
    66    32    33 1   
    67    32    73 1   
    68    32    74 1   
    69    33    75 1   
    70    33    76 1   
    71    34    35 1   
    72    34    77 1   
    73    34    78 1   
    74    35    40 1   
    75    35    79 1   
    76    35    80 1   
    77    36    38 1   
    78    36    39 1   
    79    37    40 2   
    80    38    41 2   
    81    38    82 1   
    82    39    40 1   
    83    39    42 2   
    84    41    42 1   
    85    41    81 1   
@<TRIPOS>SUBSTRUCTURE
     1 QWE         1 TEMP              0 ****  ****    0 ROOT
