@<TRIPOS>MOLECULE
QWE
   82    85     1     0     0
SMALL
No Charge or Current Charge


@<TRIPOS>ATOM
      1 C1          -1.5060    -2.7350     0.2360 ca         1 QWE      -0.305500
      2 C2          -2.2140    -3.0870    -0.9350 ca         1 QWE       0.006000
      3 C3          -1.5400    -3.4390    -2.1070 ca         1 QWE      -0.162000
      4 C4          -0.1440    -3.4620    -2.1360 ca         1 QWE      -0.015000
      5 C4A          0.6050    -3.1070    -0.9920 ca         1 QWE      -0.068000
      6 C5           2.0260    -3.1260    -1.0430 ca         1 QWE       0.286000
      7 C6           2.7650    -2.7400     0.0830 ca         1 QWE      -0.167000
      8 C7           2.1160    -2.3390     1.2520 ca         1 QWE      -0.044000
      9 C8           0.7170    -2.3340     1.3130 ca         1 QWE      -0.150000
     10 C8A         -0.0730    -2.7210     0.2040 ca         1 QWE       0.056000
     11 N            2.7390    -3.5320    -2.1980 nh         1 QWE      -0.783400
     12 CM1          3.7420    -2.6390    -2.8150 c3         1 QWE       0.167100
     13 CM2          2.8060    -4.9640    -2.5610 c3         1 QWE       0.167100
     14 S           -2.5380    -2.4350     1.7080 sy         1 QWE       1.156600
     15 O1S         -3.9050    -2.9090     1.4770 o          1 QWE      -0.541000
     16 O2S         -1.8120    -2.8010     2.9230 o          1 QWE      -0.541000
     17 N1          -2.6720    -0.7740     1.8070 n7         1 QWE      -0.895300
     18 CA          -2.3470     0.1140     0.6460 c3         1 QWE       0.151500
     19 C           -0.8610     0.6300     0.6730 c          1 QWE       0.575100
     20 O           -0.2460     0.5480     1.7300 o          1 QWE      -0.586100
     21 CB          -3.3370     1.3100     0.6720 c3         1 QWE      -0.069400
     22 CG          -4.7980     0.9170     0.3470 c3         1 QWE      -0.093400
     23 CD          -5.7550     2.1230     0.3490 c3         1 QWE       0.059600
     24 NE          -7.1240     1.6820     0.0280 nu         1 QWE      -0.888000
     25 CZ          -8.2220     2.4010    -0.0760 cz         1 QWE       0.933600
     26 NH1         -8.1910     3.6880     0.1110 nv         1 QWE      -0.612800
     27 NH2         -9.3410     1.8110    -0.3690 nv         1 QWE      -0.612800
     28 N11         -0.2810     1.2030    -0.5040 n          1 QWE      -0.374800
     29 C21          1.1380     1.6900    -0.6360 c6         1 QWE       0.103700
     30 C31          1.9110     0.6980    -1.5530 c6         1 QWE      -0.105400
     31 C41          1.2260     0.5510    -2.9350 c6         1 QWE      -0.075400
     32 C51         -0.2770     0.2170    -2.7880 c6         1 QWE      -0.109400
     33 C61         -0.9670     1.2070    -1.8280 c6         1 QWE       0.084000
     34 C9           1.9270     2.0110     0.6740 c3         1 QWE      -0.064400
     35 C10          3.2370     2.8240     0.4750 c3         1 QWE      -0.168400
     36 S1           6.0700     4.6100     3.0300 ss         1 QWE       0.098600
     37 O2           3.5330     2.9240     2.8670 o          1 QWE      -0.512100
     38 C52          7.2040     5.4070     1.9790 cc         1 QWE      -0.275000
     39 C22          5.2030     4.0900     1.6040 cc         1 QWE       0.302900
     40 C2'1         3.9660     3.2590     1.7660 c          1 QWE       0.505600
     41 C42          6.8710     5.2380     0.6570 cd         1 QWE       0.269900
     42 N3           5.7270     4.4850     0.4380 nd         1 QWE      -0.617000
     43 H2          -3.3030    -3.1030    -0.9460 ha         1 QWE       0.138000
     44 H3          -2.1040    -3.7070    -2.9970 ha         1 QWE       0.124000
     45 H4           0.3490    -3.7380    -3.0640 ha         1 QWE       0.137000
     46 H6           3.8510    -2.7540     0.0500 ha         1 QWE       0.125000
     47 H7           2.6980    -2.0300     2.1180 ha         1 QWE       0.127000
     48 H8           0.2800    -1.9910     2.2390 ha         1 QWE       0.126000
     49 HM11         4.7580    -2.9450    -2.5320 h1         1 QWE       0.040367
     50 HM12         3.6550    -2.6660    -3.9090 h1         1 QWE       0.040367
     51 HM13         3.5900    -1.6020    -2.4900 h1         1 QWE       0.040367
     52 HM21         2.0420    -5.5380    -2.0200 h1         1 QWE       0.040367
     53 HM22         2.6310    -5.0950    -3.6370 h1         1 QWE       0.040367
     54 HM23         3.7910    -5.3800    -2.3090 h1         1 QWE       0.040367
     55 H           -1.9810    -0.5940     2.5370 hn         1 QWE       0.524000
     56 HA          -2.5030    -0.4220    -0.2980 h1         1 QWE       0.070700
     57 HB2         -3.2970     1.7880     1.6590 hc         1 QWE       0.060200
     58 HB3         -3.0140     2.0730    -0.0460 hc         1 QWE       0.060200
     59 HG2         -4.8300     0.4310    -0.6360 hc         1 QWE       0.075200
     60 HG3         -5.1480     0.1800     1.0820 hc         1 QWE       0.075200
     61 HD2         -5.7300     2.5990     1.3400 h1         1 QWE       0.063700
     62 HD3         -5.4080     2.8580    -0.3920 h1         1 QWE       0.063700
     63 HE          -7.2420     0.6860    -0.1210 hn         1 QWE       0.380000
     64 HH11        -7.3300     4.1520     0.3420 hn         1 QWE       0.378250
     65 HH12        -9.0150     4.2610     0.0410 hn         1 QWE       0.378250
     66 HH21        -9.3880     0.8180    -0.5230 hn         1 QWE       0.378250
     67 HH22       -10.2040     2.3210    -0.4600 hn         1 QWE       0.378250
     68 H21          1.0840     2.6480    -1.1740 h1         1 QWE       0.052700
     69 H31          2.9460     1.0260    -1.7070 hc         1 QWE       0.060700
     70 H32          1.9640    -0.2810    -1.0610 hc         1 QWE       0.060700
     71 H41          1.3390     1.4870    -3.5000 hc         1 QWE       0.052200
     72 H42          1.7270    -0.2300    -3.5240 hc         1 QWE       0.052200
     73 H51         -0.7670     0.2390    -3.7700 hc         1 QWE       0.054200
     74 H52         -0.3950    -0.7990    -2.3990 hc         1 QWE       0.054200
     75 H61         -2.0320     0.9580    -1.7580 h1         1 QWE       0.051700
     76 H62         -0.9150     2.2200    -2.2540 h1         1 QWE       0.051700
     77 H1'1         1.2800     2.5950     1.3400 hc         1 QWE       0.072700
     78 H1'2         2.1750     1.0820     1.2020 hc         1 QWE       0.072700
     79 H2'1         3.9710     2.2950    -0.1420 hc         1 QWE       0.077700
     80 H2'2         3.0700     3.7230    -0.1300 hc         1 QWE       0.077700
     81 H43          7.4200     5.6370    -0.1880 h4         1 QWE       0.048100
     82 H5           8.0410     5.9470     2.3990 h4         1 QWE       0.168000
@<TRIPOS>BOND
     1     1     2 ar  
     2     1    10 ar  
     3     1    14 1   
     4     2     3 ar  
     5     2    43 1   
     6     3     4 ar  
     7     3    44 1   
     8     4     5 ar  
     9     4    45 1   
    10     5     6 ar  
    11     5    10 ar  
    12     6     7 ar  
    13     6    11 1   
    14     7     8 ar  
    15     7    46 1   
    16     8     9 ar  
    17     8    47 1   
    18     9    10 ar  
    19     9    48 1   
    20    11    12 1   
    21    11    13 1   
    22    12    49 1   
    23    12    50 1   
    24    12    51 1   
    25    13    52 1   
    26    13    53 1   
    27    13    54 1   
    28    14    15 2   
    29    14    16 2   
    30    14    17 1   
    31    17    18 1   
    32    17    55 1   
    33    18    19 1   
    34    18    21 1   
    35    18    56 1   
    36    19    20 2   
    37    19    28 1   
    38    21    22 1   
    39    21    57 1   
    40    21    58 1   
    41    22    23 1   
    42    22    59 1   
    43    22    60 1   
    44    23    24 1   
    45    23    61 1   
    46    23    62 1   
    47    24    25 2   
    48    24    63 1   
    49    25    26 1   
    50    25    27 1   
    51    26    64 1   
    52    26    65 1   
    53    27    66 1   
    54    27    67 1   
    55    28    29 1   
    56    28    33 1   
    57    29    30 1   
    58    29    34 1   
    59    29    68 1   
    60    30    31 1   
    61    30    69 1   
    62    30    70 1   
    63    31    32 1   
    64    31    71 1   
    65    31    72 1   
    66    32    33 1   
    67    32    73 1   
    68    32    74 1   
    69    33    75 1   
    70    33    76 1   
    71    34    35 1   
    72    34    77 1   
    73    34    78 1   
    74    35    40 1   
    75    35    79 1   
    76    35    80 1   
    77    36    38 1   
    78    36    39 1   
    79    37    40 2   
    80    38    41 2   
    81    38    82 1   
    82    39    40 1   
    83    39    42 2   
    84    41    42 1   
    85    41    81 1   
@<TRIPOS>SUBSTRUCTURE
     1 QWE         1 TEMP              0 ****  ****    0 ROOT
