@<TRIPOS>MOLECULE
QWF
  137   139     1     0     0
SMALL
No Charge or Current Charge


@<TRIPOS>ATOM
      1 C3          16.1520    42.2640    41.7600 c3         1 QWF      -0.036400
      2 C8          20.5330    46.9680    43.1760 c3         1 QWF      -0.081400
      3 C7          19.4940    46.2500    44.0770 c3         1 QWF      -0.001300
      4 N9          30.4310    52.2520    43.7360 n3         1 QWF      -0.707600
      5 C10         22.9300    47.9640    42.9970 c3         1 QWF      -0.101400
      6 C14         26.3470    49.5970    39.3830 c3         1 QWF      -0.055200
      7 C20         32.1840    52.6150    37.9750 ca         1 QWF      -0.099000
      8 C18         31.2400    50.7590    39.2340 ca         1 QWF      -0.105500
      9 C17         29.9370    51.1700    38.8930 ca         1 QWF      -0.034800
     10 C22         29.7690    52.3220    38.0950 ca         1 QWF      -0.105500
     11 C27         27.6620    56.2510    42.6940 c6         1 QWF      -0.065700
     12 C26         28.5080    55.2710    41.8340 c6         1 QWF      -0.082900
     13 C25         27.6520    54.4950    40.7990 c6         1 QWF      -0.057400
     14 C24         26.4270    53.8140    41.4650 c6         1 QWF      -0.152700
     15 C16         28.7720    50.3890    39.3960 ce         1 QWF      -0.173200
     16 C13         25.1800    50.5110    39.8270 c3         1 QWF       0.036700
     17 C12         23.9920    49.6910    40.4210 c          1 QWF       0.587100
     18 C6          18.2050    44.7330    42.5080 c          1 QWF       0.644100
     19 C5          14.6160    41.1060    43.4100 c          1 QWF       0.712000
     20 C4          14.9570    42.4450    42.7340 c3         1 QWF      -0.197400
     21 C1          15.4560    44.0130    39.9780 c          1 QWF       0.715000
     22 O1          14.7270    44.9460    40.2940 o          1 QWF      -0.749000
     23 O2          15.4400    43.5110    38.8620 o          1 QWF      -0.749000
     24 C2          16.5670    43.5420    40.9770 c3         1 QWF      -0.042300
     25 O3          15.1810    40.8220    44.4550 o          1 QWF      -0.785000
     26 O4          13.8230    40.3610    42.8550 o          1 QWF      -0.785000
     27 N1          16.9910    44.6440    41.8760 ns         1 QWF      -0.467900
     28 O5          19.1020    43.9150    42.3810 o          1 QWF      -0.700100
     29 N2          18.2980    45.8480    43.2970 ns         1 QWF      -0.513900
     30 C11         22.5360    49.3580    42.4590 c3         1 QWF       0.102000
     31 N3          23.6240    49.9980    41.7160 ns         1 QWF      -0.485900
     32 O6          23.4050    48.8310    39.7750 o          1 QWF      -0.626100
     33 C19         32.3590    51.4750    38.7760 ca         1 QWF      -0.113000
     34 C21         30.8880    53.0410    37.6390 ca         1 QWF      -0.113000
     35 N4          25.6810    51.5550    40.7560 ns         1 QWF      -0.516900
     36 O7          24.9840    53.3730    39.5760 o          1 QWF      -0.670100
     37 C28         26.4450    55.5240    43.3470 c6         1 QWF      -0.082900
     38 C29         25.5670    54.7960    42.2980 c6         1 QWF      -0.057400
     39 C31         28.4620    55.9960    46.0570 c          1 QWF       0.594100
     40 O8          27.4760    56.6430    46.3980 o          1 QWF      -0.710100
     41 C32         29.1400    54.9410    46.9740 c3         1 QWF       0.082800
     42 N6          30.2150    54.1090    46.3380 n3         1 QWF      -0.663600
     43 C33         31.5810    54.3910    46.8710 c3         1 QWF       0.168300
     44 C34         32.1430    55.8100    46.5310 c3         1 QWF       0.208800
     45 N7          32.4490    56.0350    45.0890 n3         1 QWF      -0.707600
     46 C35         32.4740    57.4940    44.7150 c3         1 QWF       0.044800
     47 C36         33.5860    58.4180    45.3330 c          1 QWF       0.688500
     48 O9          34.6050    58.6240    44.6860 o          1 QWF      -0.762500
     49 O10         33.3850    58.9260    46.4290 o          1 QWF      -0.762500
     50 C37         33.6600    55.2850    44.6220 c3         1 QWF       0.210800
     51 C38         33.7860    55.0550    43.0760 c3         1 QWF       0.173300
     52 N8          32.7550    54.1690    42.4560 n3         1 QWF      -0.634600
     53 C39         32.8250    52.7470    42.9300 c3         1 QWF       0.173300
     54 C40         31.5190    51.8980    42.7830 c3         1 QWF       0.210800
     55 C41         30.6760    51.8530    45.1560 c3         1 QWF       0.208800
     56 C42         29.8740    52.6600    46.2310 c3         1 QWF       0.168300
     57 C44         28.4880    50.4880    43.0960 c          1 QWF       0.688500
     58 O11         29.2120    49.5190    43.2870 o          1 QWF      -0.762500
     59 O12         27.3120    50.3870    42.7660 o          1 QWF      -0.762500
     60 C45         32.7100    54.2610    40.9540 c3         1 QWF       0.025800
     61 C46         32.7860    55.6700    40.2550 c          1 QWF       0.717000
     62 O13         33.8630    56.0300    39.7910 o          1 QWF      -0.747000
     63 O14         31.7690    56.3460    40.1600 o          1 QWF      -0.747000
     64 C47         19.0710    47.1160    45.3140 c          1 QWF       0.711000
     65 O15         18.3460    48.0860    45.1300 o          1 QWF      -0.758000
     66 O16         19.3890    46.7300    46.4300 o          1 QWF      -0.758000
     67 H1          17.0170    41.8980    42.3250 hc         1 QWF       0.020700
     68 H2          15.9050    41.4790    41.0350 hc         1 QWF       0.020700
     69 H3          20.0810    47.8850    42.7780 hc         1 QWF       0.045700
     70 H4          20.7620    46.3280    42.3150 hc         1 QWF       0.045700
     71 H5          19.9580    45.3350    44.4690 h1         1 QWF       0.040700
     72 H7          23.1500    47.2940    42.1570 hc         1 QWF       0.042200
     73 H8          23.8570    48.0600    43.5740 hc         1 QWF       0.042200
     74 H9          25.9860    48.9050    38.6120 hc         1 QWF       0.073200
     75 H10         26.6530    48.9740    40.2340 hc         1 QWF       0.073200
     76 H11         33.0490    53.1730    37.6230 ha         1 QWF       0.103000
     77 H12         31.3880    49.8780    39.8540 ha         1 QWF       0.111000
     78 H13         28.7750    52.6750    37.8350 ha         1 QWF       0.111000
     79 H14         27.2730    57.0320    42.0240 hc         1 QWF       0.016700
     80 H15         29.0330    54.5690    42.4910 hc         1 QWF       0.058700
     81 H16         29.2930    55.8260    41.3060 hc         1 QWF       0.058700
     82 H17         27.3070    55.1850    40.0160 hc         1 QWF       0.032700
     83 H18         28.2740    53.7420    40.2970 hc         1 QWF       0.032700
     84 H19         26.8400    53.1170    42.1990 hc         1 QWF       0.090700
     85 H20         28.9820    49.7730    40.2730 ha         1 QWF       0.204000
     86 H21         24.7820    51.0020    38.9300 h1         1 QWF       0.067700
     87 H22         14.1120    42.7810    42.1220 hc         1 QWF       0.031700
     88 H23         15.2800    43.1770    43.4840 hc         1 QWF       0.031700
     89 H25         17.4360    43.2790    40.3610 h1         1 QWF       0.039700
     90 H27         16.3280    45.3910    42.0400 hn         1 QWF       0.277500
     91 H28         17.4880    46.4520    43.3370 hn         1 QWF       0.322500
     92 H31         22.2640    50.0090    43.3000 h1         1 QWF       0.051200
     93 H32         21.6610    49.2740    41.8010 h1         1 QWF       0.051200
     94 H33         24.1610    50.7250    42.1720 hn         1 QWF       0.324500
     95 H35         33.3610    51.1490    39.0440 ha         1 QWF       0.096500
     96 H36         30.7500    53.9300    37.0290 ha         1 QWF       0.096500
     97 H37         26.2950    51.2500    41.5180 hn         1 QWF       0.398500
     98 H38         26.7950    54.7890    44.0830 hc         1 QWF       0.058700
     99 H39         25.8310    56.2480    43.9000 hc         1 QWF       0.058700
    100 H40         25.0890    55.5300    41.6340 hc         1 QWF       0.032700
    101 H41         24.7570    54.2520    42.8030 hc         1 QWF       0.032700
    102 H45         29.5410    55.4870    47.8390 h1         1 QWF       0.034700
    103 H46         28.3370    54.2960    47.3580 h1         1 QWF       0.034700
    104 H48         31.5620    54.2870    47.9640 h1         1 QWF       0.010200
    105 H49         32.2940    53.6420    46.5120 h1         1 QWF       0.010200
    106 H50         33.0520    55.9700    47.1250 h1         1 QWF       0.018950
    107 H51         31.4110    56.5520    46.8750 h1         1 QWF       0.018950
    108 H53         31.5110    57.9480    44.9830 h1         1 QWF       0.045950
    109 H54         32.5510    57.5920    43.6250 h1         1 QWF       0.045950
    110 H56         33.7170    54.3090    45.1160 h1         1 QWF       0.014950
    111 H57         34.5590    55.8220    44.9510 h1         1 QWF       0.014950
    112 H58         34.7810    54.6330    42.8770 h1         1 QWF       0.001450
    113 H59         33.7690    56.0420    42.6000 h1         1 QWF       0.001450
    114 H61         33.6200    52.2330    42.3720 h1         1 QWF       0.001450
    115 H62         33.1330    52.7030    43.9800 h1         1 QWF       0.001450
    116 H63         31.1610    52.0020    41.7510 h1         1 QWF       0.014950
    117 H64         31.7820    50.8400    42.9150 h1         1 QWF       0.014950
    118 H65         30.4300    50.7920    45.2830 h1         1 QWF       0.018950
    119 H66         31.7420    51.9380    45.3960 h1         1 QWF       0.018950
    120 H67         28.8060    52.5500    46.0030 h1         1 QWF       0.010200
    121 H68         30.0330    52.1840    47.2070 h1         1 QWF       0.010200
    122 H69         28.9730    52.3570    42.2100 h1         1 QWF       0.045950
    123 H70         28.3230    52.4970    43.8330 h1         1 QWF       0.045950
    124 H72         31.7860    53.7870    40.5980 h1         1 QWF       0.007700
    125 H73         33.5370    53.6660    40.5420 h1         1 QWF       0.007700
    126 C23         25.6280    52.9110    40.5070 c          1 QWF       0.602100
    127 C9          21.8570    47.3120    43.9020 c3         1 QWF      -0.061400
    128 C15         27.5330    50.3820    38.8530 c2         1 QWF      -0.196200
    129 C30         28.5550    56.9970    43.7370 c3         1 QWF       0.102000
    130 N5          29.0530    56.1440    44.8240 ns         1 QWF      -0.448900
    131 C43         29.0520    51.9480    43.2240 c3         1 QWF       0.044800
    132 H29         22.2750    46.3900    44.3260 hc         1 QWF       0.036200
    133 H30         21.6530    47.9810    44.7460 hc         1 QWF       0.036200
    134 H34         27.3070    50.9730    37.9650 ha         1 QWF       0.147000
    135 H42         29.4170    57.4400    43.2190 h1         1 QWF       0.057700
    136 H43         27.9750    57.8240    44.1680 h1         1 QWF       0.057700
    137 H44         29.8760    55.5610    44.6790 hn         1 QWF       0.396500
@<TRIPOS>BOND
     1     1    20 1   
     2     1    24 1   
     3     1    67 1   
     4     1    68 1   
     5     2     3 1   
     6     2    69 1   
     7     2    70 1   
     8     2   127 1   
     9     3    29 1   
    10     3    64 1   
    11     3    71 1   
    12     4    54 1   
    13     4    55 1   
    14     4   131 1   
    15     5    30 1   
    16     5    72 1   
    17     5    73 1   
    18     5   127 1   
    19     6    16 1   
    20     6    74 1   
    21     6    75 1   
    22     6   128 1   
    23     7    33 ar  
    24     7    34 ar  
    25     7    76 1   
    26     8     9 ar  
    27     8    33 ar  
    28     8    77 1   
    29     9    10 ar  
    30     9    15 1   
    31    10    34 ar  
    32    10    78 1   
    33    11    12 1   
    34    11    37 1   
    35    11    79 1   
    36    11   129 1   
    37    12    13 1   
    38    12    80 1   
    39    12    81 1   
    40    13    14 1   
    41    13    82 1   
    42    13    83 1   
    43    14    38 1   
    44    14    84 1   
    45    14   126 1   
    46    15    85 1   
    47    15   128 2   
    48    16    17 1   
    49    16    35 1   
    50    16    86 1   
    51    17    31 1   
    52    17    32 2   
    53    18    27 1   
    54    18    28 2   
    55    18    29 1   
    56    19    20 1   
    57    19    25 1   
    58    19    26 1   
    59    20    87 1   
    60    20    88 1   
    61    21    22 1   
    62    21    23 1   
    63    21    24 1   
    64    24    27 1   
    65    24    89 1   
    66    27    90 1   
    67    29    91 1   
    68    30    31 1   
    69    30    92 1   
    70    30    93 1   
    71    31    94 1   
    72    33    95 1   
    73    34    96 1   
    74    35    97 1   
    75    35   126 1   
    76    36   126 2   
    77    37    38 1   
    78    37    98 1   
    79    37    99 1   
    80    38   100 1   
    81    38   101 1   
    82    39    40 2   
    83    39    41 1   
    84    39   130 1   
    85    41    42 1   
    86    41   102 1   
    87    41   103 1   
    88    42    43 1   
    89    42    56 1   
    90    43    44 1   
    91    43   104 1   
    92    43   105 1   
    93    44    45 1   
    94    44   106 1   
    95    44   107 1   
    96    45    46 1   
    97    45    50 1   
    98    46    47 1   
    99    46   108 1   
   100    46   109 1   
   101    47    48 1   
   102    47    49 1   
   103    50    51 1   
   104    50   110 1   
   105    50   111 1   
   106    51    52 1   
   107    51   112 1   
   108    51   113 1   
   109    52    53 1   
   110    52    60 1   
   111    53    54 1   
   112    53   114 1   
   113    53   115 1   
   114    54   116 1   
   115    54   117 1   
   116    55    56 1   
   117    55   118 1   
   118    55   119 1   
   119    56   120 1   
   120    56   121 1   
   121    57    58 1   
   122    57    59 1   
   123    57   131 1   
   124    60    61 1   
   125    60   124 1   
   126    60   125 1   
   127    61    62 1   
   128    61    63 1   
   129    64    65 1   
   130    64    66 1   
   131   122   131 1   
   132   123   131 1   
   133   127   132 1   
   134   127   133 1   
   135   128   134 1   
   136   129   130 1   
   137   129   135 1   
   138   129   136 1   
   139   130   137 1   
@<TRIPOS>SUBSTRUCTURE
     1 QWF         1 TEMP              0 ****  ****    0 ROOT
