@<TRIPOS>MOLECULE
QWF
  137   139     1     0     0
SMALL
abcg2


@<TRIPOS>ATOM
      1 C3          16.8640    42.1010    41.2620 c3         1 QWF      -0.036400
      2 C8          20.5700    47.0850    43.9000 c3         1 QWF      -0.081400
      3 C7          19.7410    46.1630    44.8120 c3         1 QWF      -0.001300
      4 N9          30.0670    52.3130    43.6510 n3         1 QWF      -0.707600
      5 C10         22.7300    48.4130    43.5940 c3         1 QWF      -0.101400
      6 C14         25.5000    49.8760    39.7180 c3         1 QWF      -0.055200
      7 C20         31.4690    52.2040    37.9150 ca         1 QWF      -0.099000
      8 C18         30.3840    50.5260    39.2520 ca         1 QWF      -0.105500
      9 C17         29.1240    51.0080    38.8900 ca         1 QWF      -0.034800
     10 C22         29.0640    52.1130    38.0340 ca         1 QWF      -0.105500
     11 C27         27.5710    56.3800    42.4240 c6         1 QWF      -0.065700
     12 C26         28.1130    55.2250    41.5860 c6         1 QWF      -0.082900
     13 C25         27.0170    54.4490    40.8680 c6         1 QWF      -0.057400
     14 C24         25.9310    53.9840    41.8470 c6         1 QWF      -0.152700
     15 C16         27.9340    50.3580    39.4440 ce         1 QWF      -0.173200
     16 C13         24.4860    50.9080    40.2400 c3         1 QWF       0.036700
     17 C12         23.2960    50.1730    40.8590 c          1 QWF       0.587100
     18 C6          19.0270    44.3220    43.3330 c          1 QWF       0.644100
     19 C5          14.4770    42.2160    40.2650 c          1 QWF       0.712000
     20 C4          15.7530    42.9740    40.6950 c3         1 QWF      -0.197400
     21 C1          18.7870    43.4990    40.3670 c          1 QWF       0.715000
     22 O1          18.8000    44.7430    40.3170 o          1 QWF      -0.749000
     23 O2          19.2090    42.7040    39.5010 o          1 QWF      -0.749000
     24 C2          18.1640    42.8300    41.6190 c3         1 QWF      -0.042300
     25 O3          13.4650    42.9200    40.0630 o          1 QWF      -0.785000
     26 O4          14.5560    40.9790    40.1270 o          1 QWF      -0.785000
     27 N1          17.9450    43.7440    42.7220 ns         1 QWF      -0.467900
     28 O5          20.1540    43.8300    43.2780 o          1 QWF      -0.700100
     29 N2          18.7530    45.4340    44.0530 ns         1 QWF      -0.513900
     30 C11         22.1220    49.6600    42.9580 c3         1 QWF       0.102000
     31 N3          23.0850    50.3910    42.1610 ns         1 QWF      -0.485900
     32 O6          22.6130    49.4280    40.1680 o          1 QWF      -0.626100
     33 C19         31.5450    51.1120    38.7670 ca         1 QWF      -0.113000
     34 C21         30.2220    52.7010    37.5520 ca         1 QWF      -0.113000
     35 N4          25.1440    51.8370    41.1210 ns         1 QWF      -0.516900
     36 O7          24.0040    53.6730    40.4420 o          1 QWF      -0.670100
     37 C28         26.4410    55.9160    43.3400 c6         1 QWF      -0.082900
     38 C29         25.3410    55.1860    42.5740 c6         1 QWF      -0.057400
     39 C31         29.0340    56.4350    45.5190 c          1 QWF       0.594100
     40 O8          28.1900    57.2040    45.9650 o          1 QWF      -0.710100
     41 C32         29.8900    55.6200    46.4760 c3         1 QWF       0.082800
     42 N6          30.5860    54.4930    45.8960 n3         1 QWF      -0.663600
     43 C33         31.8530    54.2410    46.5670 c3         1 QWF       0.168300
     44 C34         32.9050    55.3320    46.3970 c3         1 QWF       0.208800
     45 N7          33.2100    55.6230    45.0160 n3         1 QWF      -0.707600
     46 C35         33.5130    57.0070    44.7390 c3         1 QWF       0.044800
     47 C36         34.7670    57.6510    45.3770 c          1 QWF       0.688500
     48 O9          34.9390    58.8530    45.0840 o          1 QWF      -0.762500
     49 O10         35.4890    56.9520    46.1150 o          1 QWF      -0.762500
     50 C37         34.0950    54.6670    44.3840 c3         1 QWF       0.210800
     51 C38         33.7990    54.4140    42.9100 c3         1 QWF       0.173300
     52 N8          32.5000    53.8320    42.6130 n3         1 QWF      -0.634600
     53 C39         32.4780    52.4270    42.9780 c3         1 QWF       0.173300
     54 C40         31.1340    51.7140    42.8740 c3         1 QWF       0.210800
     55 C41         30.1780    52.1260    45.0850 c3         1 QWF       0.208800
     56 C42         29.7170    53.3200    45.9130 c3         1 QWF       0.168300
     57 C44         28.1640    50.6140    43.1830 c          1 QWF       0.688500
     58 O11         28.8910    49.6610    43.5000 o          1 QWF      -0.762500
     59 O12         26.9500    50.5360    42.8530 o          1 QWF      -0.762500
     60 C45         32.1790    54.0150    41.2120 c3         1 QWF       0.025800
     61 C46         31.9270    55.4620    40.7380 c          1 QWF       0.717000
     62 O13         32.0130    55.6300    39.5050 o          1 QWF      -0.747000
     63 O14         31.6100    56.3210    41.5850 o          1 QWF      -0.747000
     64 C47         19.0230    46.9820    45.9130 c          1 QWF       0.711000
     65 O15         17.8500    47.3320    45.6650 o          1 QWF      -0.758000
     66 O16         19.6850    47.2440    46.9330 o          1 QWF      -0.758000
     67 H1          16.5020    41.5790    42.1530 hc         1 QWF       0.020700
     68 H2          17.1110    41.3250    40.5370 hc         1 QWF       0.020700
     69 H3          19.9100    47.8610    43.4970 hc         1 QWF       0.045700
     70 H4          20.9070    46.4950    43.0420 hc         1 QWF       0.045700
     71 H5          20.4220    45.4540    45.2900 h1         1 QWF       0.040700
     72 H7          23.0410    47.7220    42.8050 hc         1 QWF       0.042200
     73 H8          23.6410    48.7080    44.1240 hc         1 QWF       0.042200
     74 H9          24.9880    49.2320    38.9980 hc         1 QWF       0.073200
     75 H10         25.8380    49.2410    40.5400 hc         1 QWF       0.073200
     76 H11         32.3720    52.6700    37.5420 ha         1 QWF       0.103000
     77 H12         30.4550    49.6780    39.9230 ha         1 QWF       0.111000
     78 H13         28.1050    52.5270    37.7480 ha         1 QWF       0.111000
     79 H14         27.1510    57.1250    41.7350 hc         1 QWF       0.016700
     80 H15         28.6710    54.5430    42.2330 hc         1 QWF       0.058700
     81 H16         28.8290    55.6080    40.8540 hc         1 QWF       0.058700
     82 H17         26.5570    55.0800    40.1000 hc         1 QWF       0.032700
     83 H18         27.4520    53.5890    40.3490 hc         1 QWF       0.032700
     84 H19         26.4030    53.3370    42.5910 hc         1 QWF       0.090700
     85 H20         28.1290    49.6470    40.2420 ha         1 QWF       0.204000
     86 H21         24.0910    51.4640    39.3860 h1         1 QWF       0.067700
     87 H22         16.1180    43.5180    39.8150 hc         1 QWF       0.031700
     88 H23         15.4570    43.7520    41.4070 hc         1 QWF       0.031700
     89 H25         18.8630    42.0650    41.9640 h1         1 QWF       0.039700
     90 H27         17.1450    44.3500    42.6130 hn         1 QWF       0.277500
     91 H28         17.8200    45.8150    44.0970 hn         1 QWF       0.322500
     92 H31         21.7540    50.3310    43.7370 h1         1 QWF       0.051200
     93 H32         21.2690    49.4060    42.3290 h1         1 QWF       0.051200
     94 H33         23.7450    50.9760    42.6480 hn         1 QWF       0.324500
     95 H35         32.5090    50.7210    39.0650 ha         1 QWF       0.096500
     96 H36         30.1520    53.5580    36.8940 ha         1 QWF       0.096500
     97 H37         25.9060    51.4730    41.7110 hn         1 QWF       0.398500
     98 H38         26.8420    55.2420    44.1040 hc         1 QWF       0.058700
     99 H39         26.0200    56.7730    43.8720 hc         1 QWF       0.058700
    100 H40         24.8730    55.8640    41.8540 hc         1 QWF       0.032700
    101 H41         24.5570    54.8680    43.2650 hc         1 QWF       0.032700
    102 H45         30.6080    56.3350    46.8830 h1         1 QWF       0.034700
    103 H46         29.2560    55.3320    47.3270 h1         1 QWF       0.034700
    104 H48         31.7090    54.0740    47.6490 h1         1 QWF       0.010200
    105 H49         32.2660    53.3090    46.1810 h1         1 QWF       0.010200
    106 H50         33.7830    55.0170    46.9780 h1         1 QWF       0.018950
    107 H51         32.5710    56.2540    46.8770 h1         1 QWF       0.018950
    108 H53         32.6450    57.6130    45.0290 h1         1 QWF       0.045950
    109 H54         33.5840    57.1390    43.6540 h1         1 QWF       0.045950
    110 H56         34.0440    53.7250    44.9370 h1         1 QWF       0.014950
    111 H57         35.1470    54.9770    44.4530 h1         1 QWF       0.014950
    112 H58         34.6170    53.7850    42.5110 h1         1 QWF       0.001450
    113 H59         33.8790    55.3630    42.3790 h1         1 QWF       0.001450
    114 H61         33.1890    51.8440    42.3620 h1         1 QWF       0.001450
    115 H62         32.8410    52.3300    44.0040 h1         1 QWF       0.001450
    116 H63         30.8100    51.6900    41.8310 h1         1 QWF       0.014950
    117 H64         31.3190    50.6650    43.1440 h1         1 QWF       0.014950
    118 H65         29.5940    51.2600    45.4230 h1         1 QWF       0.018950
    119 H66         31.2110    51.8770    45.3340 h1         1 QWF       0.018950
    120 H67         28.7290    53.6290    45.5590 h1         1 QWF       0.010200
    121 H68         29.5650    52.9710    46.9490 h1         1 QWF       0.010200
    122 H69         28.6830    52.3800    42.1080 h1         1 QWF       0.045950
    123 H70         28.0360    52.6930    43.6860 h1         1 QWF       0.045950
    124 H72         31.2520    53.4780    40.9840 h1         1 QWF       0.007700
    125 H73         32.9440    53.5590    40.5580 h1         1 QWF       0.007700
    126 C23         24.9140    53.1650    41.0840 c          1 QWF       0.602100
    127 C9          21.7920    47.7070    44.5680 c3         1 QWF      -0.061400
    128 C15         26.6670    50.5490    39.0720 c2         1 QWF      -0.196200
    129 C30         28.6970    57.0930    43.1790 c3         1 QWF       0.102000
    130 N5          29.3250    56.3040    44.2200 ns         1 QWF      -0.448900
    131 C43         28.7390    52.0470    43.1510 c3         1 QWF       0.044800
    132 H29         22.3530    46.9190    45.0780 hc         1 QWF       0.036200
    133 H30         21.4860    48.4090    45.3460 hc         1 QWF       0.036200
    134 H34         26.4290    51.2390    38.2660 ha         1 QWF       0.147000
    135 H42         29.4740    57.3790    42.4700 h1         1 QWF       0.057700
    136 H43         28.3120    58.0070    43.6320 h1         1 QWF       0.057700
    137 H44         30.0710    55.6640    43.9810 hn         1 QWF       0.396500
@<TRIPOS>BOND
     1     1    20 1   
     2     1    24 1   
     3     1    67 1   
     4     1    68 1   
     5     2     3 1   
     6     2    69 1   
     7     2    70 1   
     8     2   127 1   
     9     3    29 1   
    10     3    64 1   
    11     3    71 1   
    12     4    54 1   
    13     4    55 1   
    14     4   131 1   
    15     5    30 1   
    16     5    72 1   
    17     5    73 1   
    18     5   127 1   
    19     6    16 1   
    20     6    74 1   
    21     6    75 1   
    22     6   128 1   
    23     7    33 ar  
    24     7    34 ar  
    25     7    76 1   
    26     8     9 ar  
    27     8    33 ar  
    28     8    77 1   
    29     9    10 ar  
    30     9    15 1   
    31    10    34 ar  
    32    10    78 1   
    33    11    12 1   
    34    11    37 1   
    35    11    79 1   
    36    11   129 1   
    37    12    13 1   
    38    12    80 1   
    39    12    81 1   
    40    13    14 1   
    41    13    82 1   
    42    13    83 1   
    43    14    38 1   
    44    14    84 1   
    45    14   126 1   
    46    15    85 1   
    47    15   128 2   
    48    16    17 1   
    49    16    35 1   
    50    16    86 1   
    51    17    31 1   
    52    17    32 2   
    53    18    27 1   
    54    18    28 2   
    55    18    29 1   
    56    19    20 1   
    57    19    25 1   
    58    19    26 1   
    59    20    87 1   
    60    20    88 1   
    61    21    22 1   
    62    21    23 1   
    63    21    24 1   
    64    24    27 1   
    65    24    89 1   
    66    27    90 1   
    67    29    91 1   
    68    30    31 1   
    69    30    92 1   
    70    30    93 1   
    71    31    94 1   
    72    33    95 1   
    73    34    96 1   
    74    35    97 1   
    75    35   126 1   
    76    36   126 2   
    77    37    38 1   
    78    37    98 1   
    79    37    99 1   
    80    38   100 1   
    81    38   101 1   
    82    39    40 2   
    83    39    41 1   
    84    39   130 1   
    85    41    42 1   
    86    41   102 1   
    87    41   103 1   
    88    42    43 1   
    89    42    56 1   
    90    43    44 1   
    91    43   104 1   
    92    43   105 1   
    93    44    45 1   
    94    44   106 1   
    95    44   107 1   
    96    45    46 1   
    97    45    50 1   
    98    46    47 1   
    99    46   108 1   
   100    46   109 1   
   101    47    48 1   
   102    47    49 1   
   103    50    51 1   
   104    50   110 1   
   105    50   111 1   
   106    51    52 1   
   107    51   112 1   
   108    51   113 1   
   109    52    53 1   
   110    52    60 1   
   111    53    54 1   
   112    53   114 1   
   113    53   115 1   
   114    54   116 1   
   115    54   117 1   
   116    55    56 1   
   117    55   118 1   
   118    55   119 1   
   119    56   120 1   
   120    56   121 1   
   121    57    58 1   
   122    57    59 1   
   123    57   131 1   
   124    60    61 1   
   125    60   124 1   
   126    60   125 1   
   127    61    62 1   
   128    61    63 1   
   129    64    65 1   
   130    64    66 1   
   131   122   131 1   
   132   123   131 1   
   133   127   132 1   
   134   127   133 1   
   135   128   134 1   
   136   129   130 1   
   137   129   135 1   
   138   129   136 1   
   139   130   137 1   
@<TRIPOS>SUBSTRUCTURE
     1 QWF         1 TEMP              0 ****  ****    0 ROOT
