@<TRIPOS>MOLECULE
QWG
   78    81     1     0     0
SMALL
No Charge or Current Charge


@<TRIPOS>ATOM
      1 N3          72.2930    31.1210     8.0140 nc         1 QWG      -0.338000
      2 N2          72.5720    32.3180     8.4670 nd         1 QWG      -0.201800
      3 N1          71.3960    32.8670     8.9160 na         1 QWG       0.124800
      4 C19         71.0920    33.8770    12.0390 c6         1 QWG       0.141300
      5 C18         71.7740    34.2110    13.3940 c6         1 QWG       0.097300
      6 C20         71.9770    34.4150    10.8700 c6         1 QWG       0.155300
      7 C16         72.8590    36.2310    12.2600 c6         1 QWG       0.389300
      8 C17         72.0350    35.7410    13.5100 c6         1 QWG       0.138300
      9 C4          62.9280    24.3890    11.0420 c6         1 QWG       0.149300
     10 C3          63.1780    25.6290    11.9550 c6         1 QWG       0.138300
     11 C5          63.7870    24.5400     9.7410 c6         1 QWG       0.161300
     12 C1          63.8210    26.9560     9.8740 c6         1 QWG       0.277300
     13 C2          62.9540    26.9620    11.1740 c6         1 QWG       0.120300
     14 C6          63.5620    23.3730     8.7250 c3         1 QWG       0.172600
     15 C10         67.2480    28.6310     6.0150 c6         1 QWG       0.146300
     16 C9          65.8600    28.7640     5.3210 c6         1 QWG       0.175300
     17 C11         67.1370    27.6140     7.1940 c6         1 QWG       0.142300
     18 C7          64.7730    28.0760     7.5030 c6         1 QWG       0.271300
     19 C8          64.7650    29.1410     6.3600 c6         1 QWG       0.120300
     20 C12         68.4460    27.4720     8.0280 c3         1 QWG       0.062600
     21 C14         70.9520    30.9040     8.1630 cc         1 QWG       0.198300
     22 C15         70.3530    31.9910     8.7210 cd         1 QWG      -0.164000
     23 C21         71.3390    34.2310     9.4650 c3         1 QWG       0.093600
     24 O20         72.1900    35.8420    11.0360 os         1 QWG      -0.490000
     25 O16         74.2010    35.7010    12.2570 os         1 QWG      -0.465000
     26 O17         72.6790    36.0240    14.7810 oh         1 QWG      -0.701000
     27 O18         70.9650    33.7500    14.4950 oh         1 QWG      -0.678000
     28 O19         70.8760    32.4600    11.9700 oh         1 QWG      -0.709000
     29 O5          63.4970    25.7980     9.0780 os         1 QWG      -0.424000
     30 O2          63.2520    28.0920    12.0300 oh         1 QWG      -0.726000
     31 O3          62.3180    25.5880    13.1090 oh         1 QWG      -0.672000
     32 O4          61.5150    24.2850    10.7690 oh         1 QWG      -0.715000
     33 O6          64.3890    23.4770     7.5460 oh         1 QWG      -0.727000
     34 O11         66.0840    28.0180     8.1020 os         1 QWG      -0.436000
     35 O8          63.4750    29.2420     5.7110 oh         1 QWG      -0.722000
     36 O9          65.9060    29.7450     4.2700 oh         1 QWG      -0.653000
     37 O10         68.2440    28.2280     5.0520 oh         1 QWG      -0.709000
     38 S1          63.5540    28.4580     8.8340 ss         1 QWG      -0.369000
     39 HC19        70.1230    34.3990    12.0020 h1         1 QWG       0.048700
     40 HC18        72.7530    33.7060    13.4160 h1         1 QWG       0.079700
     41 HC20        72.9530    33.9060    10.8760 h1         1 QWG       0.089700
     42 HC16        72.9130    37.3300    12.2970 h2         1 QWG       0.084700
     43 HC17        71.0620    36.2540    13.4720 h1         1 QWG       0.056700
     44 H22C        76.0860    35.7710    11.3560 h1         1 QWG       0.040033
     45 H22A        74.7200    36.0040    10.2460 h1         1 QWG       0.040033
     46 H22B        75.1990    37.3110    11.3570 h1         1 QWG       0.040033
     47 HC4         63.2710    23.4910    11.5790 h1         1 QWG       0.056700
     48 HC3         64.2300    25.6010    12.2790 h1         1 QWG       0.057700
     49 HC5         64.8510    24.5320    10.0200 h1         1 QWG       0.054700
     50 HC1         64.8880    26.9380    10.1420 h2         1 QWG       0.075700
     51 HC6B        62.5000    23.3640     8.4400 h1         1 QWG       0.044700
     52 HC6A        63.7660    22.4260     9.2450 h1         1 QWG       0.044700
     53 HC10        67.5090    29.6140     6.4340 h1         1 QWG       0.071700
     54 HC9         65.5950    27.7830     4.8970 h1         1 QWG       0.061700
     55 HC11        66.8860    26.6220     6.7910 h1         1 QWG       0.056700
     56 HC7         64.5050    27.0910     7.0920 h2         1 QWG       0.083700
     57 HC8         65.0340    30.1100     6.8080 h1         1 QWG       0.064700
     58 H12A        68.2740    26.7020     8.7910 h1         1 QWG       0.077200
     59 H12B        69.2500    27.1110     7.3750 h1         1 QWG       0.077200
     60 HC15        69.3240    32.1920     8.9860 h4         1 QWG       0.166000
     61 H1          71.8600    34.8900     8.7610 h1         1 QWG       0.078200
     62 H2          70.2910    34.5520     9.5050 h1         1 QWG       0.078200
     63 HO17        72.9430    36.9740    14.7770 ho         1 QWG       0.511000
     64 HO18        71.2960    34.2510    15.2770 ho         1 QWG       0.455000
     65 HO19        70.6330    32.2070    12.8930 ho         1 QWG       0.522000
     66 HO2         63.1670    28.9020    11.4720 ho         1 QWG       0.527000
     67 HO3         62.3770    26.4930    13.4970 ho         1 QWG       0.471000
     68 HO4         61.0870    24.5530    11.6190 ho         1 QWG       0.523000
     69 HO6         64.1240    22.7430     6.9430 ho         1 QWG       0.507000
     70 HO8         62.8090    29.3990     6.4220 ho         1 QWG       0.524000
     71 HO9         64.9620    29.9760     4.1060 ho         1 QWG       0.460000
     72 HO10        68.0360    28.7440     4.2360 ho         1 QWG       0.504000
     73 C13         70.3120    29.6140     7.7150 c3         1 QWG       0.059300
     74 C22         75.0910    36.2230    11.2550 c3         1 QWG       0.145900
     75 S12         69.0000    29.0270     8.8900 ss         1 QWG      -0.408000
     76 HC2         61.9000    27.0040    10.8600 h1         1 QWG       0.070700
     77 H13A        69.8690    29.7670     6.7230 h1         1 QWG       0.063200
     78 H13B        71.0810    28.8370     7.6270 h1         1 QWG       0.063200
@<TRIPOS>BOND
     1     1     2 2   
     2     1    21 1   
     3     2     3 1   
     4     3    22 1   
     5     3    23 1   
     6     4     5 1   
     7     4     6 1   
     8     4    28 1   
     9     4    39 1   
    10     5     8 1   
    11     5    27 1   
    12     5    40 1   
    13     6    23 1   
    14     6    24 1   
    15     6    41 1   
    16     7     8 1   
    17     7    24 1   
    18     7    25 1   
    19     7    42 1   
    20     8    26 1   
    21     8    43 1   
    22     9    10 1   
    23     9    11 1   
    24     9    32 1   
    25     9    47 1   
    26    10    13 1   
    27    10    31 1   
    28    10    48 1   
    29    11    14 1   
    30    11    29 1   
    31    11    49 1   
    32    12    13 1   
    33    12    29 1   
    34    12    38 1   
    35    12    50 1   
    36    13    30 1   
    37    13    76 1   
    38    14    33 1   
    39    14    51 1   
    40    14    52 1   
    41    15    16 1   
    42    15    17 1   
    43    15    37 1   
    44    15    53 1   
    45    16    19 1   
    46    16    36 1   
    47    16    54 1   
    48    17    20 1   
    49    17    34 1   
    50    17    55 1   
    51    18    19 1   
    52    18    34 1   
    53    18    38 1   
    54    18    56 1   
    55    19    35 1   
    56    19    57 1   
    57    20    58 1   
    58    20    59 1   
    59    20    75 1   
    60    21    22 2   
    61    21    73 1   
    62    22    60 1   
    63    23    61 1   
    64    23    62 1   
    65    25    74 1   
    66    26    63 1   
    67    27    64 1   
    68    28    65 1   
    69    30    66 1   
    70    31    67 1   
    71    32    68 1   
    72    33    69 1   
    73    35    70 1   
    74    36    71 1   
    75    37    72 1   
    76    44    74 1   
    77    45    74 1   
    78    46    74 1   
    79    73    75 1   
    80    73    77 1   
    81    73    78 1   
@<TRIPOS>SUBSTRUCTURE
     1 QWG         1 TEMP              0 ****  ****    0 ROOT
