@<TRIPOS>MOLECULE
QWG
   78    81     1     0     0
SMALL
abcg2


@<TRIPOS>ATOM
      1 N3          72.5820    30.2710     9.1630 nc         1 QWG      -0.338000
      2 N2          73.1110    31.3750     9.6160 nd         1 QWG      -0.201800
      3 N1          72.5100    32.3970     8.9870 na         1 QWG       0.124800
      4 C19         70.8440    34.4380    10.7380 c6         1 QWG       0.141300
      5 C18         70.4680    35.1450    12.0340 c6         1 QWG       0.097300
      6 C20         72.3580    34.2380    10.6600 c6         1 QWG       0.155300
      7 C16         72.7590    36.1260    12.0960 c6         1 QWG       0.389300
      8 C17         71.2670    36.4320    12.1860 c6         1 QWG       0.138300
      9 C4          62.9840    24.0100    11.0130 c6         1 QWG       0.149300
     10 C3          64.1190    24.6550    11.8010 c6         1 QWG       0.138300
     11 C5          63.1050    24.4020     9.5450 c6         1 QWG       0.161300
     12 C1          64.2570    26.4150    10.0460 c6         1 QWG       0.277300
     13 C2          64.1990    26.1570    11.5560 c6         1 QWG       0.120300
     14 C6          61.9640    23.8800     8.7030 c3         1 QWG       0.172600
     15 C10         67.0840    29.1970     6.2630 c6         1 QWG       0.146300
     16 C9          65.6080    29.4630     6.0250 c6         1 QWG       0.175300
     17 C11         67.2650    27.9600     7.1520 c6         1 QWG       0.142300
     18 C7          65.1090    28.1870     8.1130 c6         1 QWG       0.271300
     19 C8          64.8060    29.4620     7.3240 c6         1 QWG       0.120300
     20 C12         68.6990    27.6880     7.5670 c3         1 QWG       0.062600
     21 C14         71.6320    30.5740     8.2350 cc         1 QWG       0.198300
     22 C15         71.5830    31.9450     8.1200 cd         1 QWG      -0.164000
     23 C21         72.8680    33.7690     9.2990 c3         1 QWG       0.093600
     24 O20         73.0290    35.4860    10.8570 os         1 QWG      -0.490000
     25 O16         73.1330    35.3450    13.1910 os         1 QWG      -0.465000
     26 O17         71.0010    37.0930    13.4140 oh         1 QWG      -0.701000
     27 O18         69.0640    35.4260    11.9850 oh         1 QWG      -0.678000
     28 O19         70.2140    33.1660    10.6610 oh         1 QWG      -0.709000
     29 O5          63.1410    25.8280     9.4010 os         1 QWG      -0.424000
     30 O2          65.3730    26.6030    12.2250 oh         1 QWG      -0.726000
     31 O3          63.9020    24.3680    13.1790 oh         1 QWG      -0.672000
     32 O4          61.7140    24.4200    11.5100 oh         1 QWG      -0.715000
     33 O6          62.3100    24.0300     7.3260 oh         1 QWG      -0.727000
     34 O11         66.5010    28.0910     8.3550 os         1 QWG      -0.436000
     35 O8          63.4390    29.5500     6.9410 oh         1 QWG      -0.722000
     36 O9          65.4730    30.7150     5.3620 oh         1 QWG      -0.653000
     37 O10         67.7020    28.9760     4.9960 oh         1 QWG      -0.709000
     38 S1          64.2490    28.1980     9.7090 ss         1 QWG      -0.369000
     39 HC19        70.5300    35.0690     9.8960 h1         1 QWG       0.048700
     40 HC18        70.6830    34.4820    12.8750 h1         1 QWG       0.079700
     41 HC20        72.6600    33.5200    11.4270 h1         1 QWG       0.089700
     42 HC16        73.3470    37.0480    12.0630 h2         1 QWG       0.084700
     43 HC17        71.0290    37.0910    11.3440 h1         1 QWG       0.056700
     44 H22C        74.7130    34.6430    14.2530 h1         1 QWG       0.040033
     45 H22A        74.9370    34.5620    12.4890 h1         1 QWG       0.040033
     46 H22B        75.0550    36.1300    13.3290 h1         1 QWG       0.040033
     47 HC4         63.0840    22.9210    11.0910 h1         1 QWG       0.056700
     48 HC3         65.0650    24.2100    11.4670 h1         1 QWG       0.057700
     49 HC5         64.0450    23.9800     9.1640 h1         1 QWG       0.054700
     50 HC1         65.1920    26.0070     9.6470 h2         1 QWG       0.075700
     51 HC6B        61.0530    24.4360     8.9390 h1         1 QWG       0.044700
     52 HC6A        61.8020    22.8250     8.9500 h1         1 QWG       0.044700
     53 HC10        67.5270    30.0650     6.7590 h1         1 QWG       0.071700
     54 HC9         65.2140    28.6590     5.3900 h1         1 QWG       0.061700
     55 HC11        66.9060    27.0860     6.5910 h1         1 QWG       0.056700
     56 HC7         64.7560    27.3160     7.5490 h2         1 QWG       0.083700
     57 HC8         65.0990    30.3300     7.9240 h1         1 QWG       0.064700
     58 H12A        68.7330    26.7540     8.1260 h1         1 QWG       0.077200
     59 H12B        69.3230    27.5720     6.6830 h1         1 QWG       0.077200
     60 HC15        70.9810    32.6020     7.5190 h4         1 QWG       0.166000
     61 H1          73.9540    33.8440     9.2960 h1         1 QWG       0.078200
     62 H2          72.4710    34.4020     8.5070 h1         1 QWG       0.078200
     63 HO17        70.0770    37.3770    13.3980 ho         1 QWG       0.511000
     64 HO18        68.6730    35.2220    12.8430 ho         1 QWG       0.455000
     65 HO19        69.2690    33.3100    10.8100 ho         1 QWG       0.522000
     66 HO2         65.3550    27.5670    12.2850 ho         1 QWG       0.527000
     67 HO3         64.5090    24.9180    13.6930 ho         1 QWG       0.471000
     68 HO4         61.7620    24.3720    12.4750 ho         1 QWG       0.523000
     69 HO6         61.5330    23.8180     6.7950 ho         1 QWG       0.507000
     70 HO8         62.9100    29.7980     7.7090 ho         1 QWG       0.524000
     71 HO9         64.5260    30.8820     5.2580 ho         1 QWG       0.460000
     72 HO10        68.5990    29.3260     5.0180 ho         1 QWG       0.504000
     73 C13         70.8290    29.5400     7.5380 c3         1 QWG       0.059300
     74 C22         74.5440    35.1620    13.3120 c3         1 QWG       0.145900
     75 S12         69.4310    29.0030     8.6120 ss         1 QWG      -0.408000
     76 HC2         63.3080    26.6390    11.9700 h1         1 QWG       0.070700
     77 H13A        70.4240    29.9410     6.6110 h1         1 QWG       0.063200
     78 H13B        71.4410    28.6670     7.3150 h1         1 QWG       0.063200
@<TRIPOS>BOND
     1     1     2 2   
     2     1    21 1   
     3     2     3 1   
     4     3    22 1   
     5     3    23 1   
     6     4     5 1   
     7     4     6 1   
     8     4    28 1   
     9     4    39 1   
    10     5     8 1   
    11     5    27 1   
    12     5    40 1   
    13     6    23 1   
    14     6    24 1   
    15     6    41 1   
    16     7     8 1   
    17     7    24 1   
    18     7    25 1   
    19     7    42 1   
    20     8    26 1   
    21     8    43 1   
    22     9    10 1   
    23     9    11 1   
    24     9    32 1   
    25     9    47 1   
    26    10    13 1   
    27    10    31 1   
    28    10    48 1   
    29    11    14 1   
    30    11    29 1   
    31    11    49 1   
    32    12    13 1   
    33    12    29 1   
    34    12    38 1   
    35    12    50 1   
    36    13    30 1   
    37    13    76 1   
    38    14    33 1   
    39    14    51 1   
    40    14    52 1   
    41    15    16 1   
    42    15    17 1   
    43    15    37 1   
    44    15    53 1   
    45    16    19 1   
    46    16    36 1   
    47    16    54 1   
    48    17    20 1   
    49    17    34 1   
    50    17    55 1   
    51    18    19 1   
    52    18    34 1   
    53    18    38 1   
    54    18    56 1   
    55    19    35 1   
    56    19    57 1   
    57    20    58 1   
    58    20    59 1   
    59    20    75 1   
    60    21    22 2   
    61    21    73 1   
    62    22    60 1   
    63    23    61 1   
    64    23    62 1   
    65    25    74 1   
    66    26    63 1   
    67    27    64 1   
    68    28    65 1   
    69    30    66 1   
    70    31    67 1   
    71    32    68 1   
    72    33    69 1   
    73    35    70 1   
    74    36    71 1   
    75    37    72 1   
    76    44    74 1   
    77    45    74 1   
    78    46    74 1   
    79    73    75 1   
    80    73    77 1   
    81    73    78 1   
@<TRIPOS>SUBSTRUCTURE
     1 QWG         1 TEMP              0 ****  ****    0 ROOT
