@<TRIPOS>MOLECULE
QWH
   27    27     1     0     0
SMALL
No Charge or Current Charge


@<TRIPOS>ATOM
      1 C1         -33.5870    22.3600    -7.7710 ca         1 QWH       0.053000
      2 C2         -32.9330    21.3640    -8.5230 ca         1 QWH      -0.144900
      3 C7         -33.8200    23.2830    -5.3840 c          1 QWH       0.610100
      4 C8         -34.6770    23.0370    -9.8340 ca         1 QWH       0.398300
      5 C9         -33.2270    23.0260    -3.9910 c3         1 QWH      -0.159400
      6 C12        -32.2570    24.1500    -3.5640 c3         1 QWH      -0.077100
      7 C14        -35.6220    23.9410   -10.6020 c3         1 QWH      -0.149400
      8 N3         -34.0500    22.0840   -10.5520 nb         1 QWH      -0.702000
      9 C4         -33.1930    21.2620    -9.9080 ca         1 QWH       0.418300
     10 N5         -33.3170    22.4580    -6.3790 ns         1 QWH      -0.158000
     11 C6         -34.4750    23.2110    -8.4570 ca         1 QWH      -0.198000
     12 O10        -34.6860    24.1320    -5.5620 o          1 QWH      -0.560100
     13 Br1        -31.6970    20.1580    -7.6620 br         1 QWH      -0.099100
     14 H18        -34.0460    22.9850    -3.2630 hc         1 QWH       0.061700
     15 H17        -32.6770    22.0770    -3.9840 hc         1 QWH       0.061700
     16 H21        -31.8480    23.9460    -2.5670 hc         1 QWH       0.045700
     17 H20        -31.4180    24.2290    -4.2680 hc         1 QWH       0.045700
     18 H1         -32.7710    25.1190    -3.5310 hc         1 QWH       0.045700
     19 H24        -32.8390    20.2770   -11.8220 hc         1 QWH       0.059700
     20 H23        -31.4310    20.3280   -10.7540 hc         1 QWH       0.059700
     21 H22        -32.7620    19.2020   -10.4200 hc         1 QWH       0.059700
     22 H27        -36.0150    23.4470   -11.4990 hc         1 QWH       0.055367
     23 H26        -36.4780    24.2320    -9.9840 hc         1 QWH       0.055367
     24 H25        -35.1090    24.8560   -10.9190 hc         1 QWH       0.055367
     25 H15        -32.6200    21.8010    -6.0550 hn         1 QWH       0.163000
     26 H16        -35.0110    24.0070    -7.9540 ha         1 QWH       0.154000
     27 C13        -32.5210    20.2110   -10.7750 c3         1 QWH      -0.151400
@<TRIPOS>BOND
     1     1     2 ar  
     2     1    10 1   
     3     1    11 ar  
     4     2     9 ar  
     5     2    13 1   
     6     3     5 1   
     7     3    10 1   
     8     3    12 2   
     9     4     7 1   
    10     4     8 ar  
    11     4    11 ar  
    12     5     6 1   
    13     5    14 1   
    14     5    15 1   
    15     6    16 1   
    16     6    17 1   
    17     6    18 1   
    18     7    22 1   
    19     7    23 1   
    20     7    24 1   
    21     8     9 ar  
    22     9    27 1   
    23    10    25 1   
    24    11    26 1   
    25    19    27 1   
    26    20    27 1   
    27    21    27 1   
@<TRIPOS>SUBSTRUCTURE
     1 QWH         1 TEMP              0 ****  ****    0 ROOT
