@<TRIPOS>MOLECULE
QWH
   27    27     1     0     0
SMALL
abcg2


@<TRIPOS>ATOM
      1 C1         -33.4990    22.2610    -7.7930 ca         1 QWH       0.053000
      2 C2         -32.9850    21.2200    -8.5820 ca         1 QWH      -0.144900
      3 C7         -33.2340    23.4450    -5.6290 c          1 QWH       0.610100
      4 C8         -34.6110    23.0170    -9.7840 ca         1 QWH       0.398300
      5 C9         -32.7660    23.1510    -4.2210 c3         1 QWH      -0.159400
      6 C12        -32.8530    24.3440    -3.2890 c3         1 QWH      -0.077100
      7 C14        -35.5090    23.9960   -10.4790 c3         1 QWH      -0.149400
      8 N3         -34.1090    22.0250   -10.5090 nb         1 QWH      -0.702000
      9 C4         -33.3100    21.1300    -9.9330 ca         1 QWH       0.418300
     10 N5         -33.1900    22.3420    -6.4460 ns         1 QWH      -0.158000
     11 C6         -34.3380    23.1710    -8.4320 ca         1 QWH      -0.198000
     12 O10        -33.5980    24.5410    -5.9980 o          1 QWH      -0.560100
     13 BR1        -31.8280    19.9320    -7.8260 br         1 QWH      -0.099100
     14 H18        -33.3530    22.3150    -3.8300 hc         1 QWH       0.061700
     15 H17        -31.7360    22.7830    -4.2760 hc         1 QWH       0.061700
     16 H21        -32.4980    24.0640    -2.2990 hc         1 QWH       0.045700
     17 H20        -32.2420    25.1750    -3.6370 hc         1 QWH       0.045700
     18 H1         -33.8780    24.6990    -3.1860 hc         1 QWH       0.045700
     19 H24        -33.1650    20.1770   -11.8240 hc         1 QWH       0.059700
     20 H23        -31.6920    20.0480   -10.8600 hc         1 QWH       0.059700
     21 H22        -33.0840    19.0520   -10.4650 hc         1 QWH       0.059700
     22 H27        -35.6760    23.6990   -11.5120 hc         1 QWH       0.055367
     23 H26        -36.4750    24.0670    -9.9780 hc         1 QWH       0.055367
     24 H25        -35.0720    24.9960   -10.4750 hc         1 QWH       0.055367
     25 H15        -32.8190    21.5070    -6.0160 hn         1 QWH       0.163000
     26 H16        -34.7870    23.9860    -7.8880 ha         1 QWH       0.154000
     27 C13        -32.7820    20.0410   -10.8160 c3         1 QWH      -0.151400
@<TRIPOS>BOND
     1     1     2 ar  
     2     1    10 1   
     3     1    11 ar  
     4     2     9 ar  
     5     2    13 1   
     6     3     5 1   
     7     3    10 1   
     8     3    12 2   
     9     4     7 1   
    10     4     8 ar  
    11     4    11 ar  
    12     5     6 1   
    13     5    14 1   
    14     5    15 1   
    15     6    16 1   
    16     6    17 1   
    17     6    18 1   
    18     7    22 1   
    19     7    23 1   
    20     7    24 1   
    21     8     9 ar  
    22     9    27 1   
    23    10    25 1   
    24    11    26 1   
    25    19    27 1   
    26    20    27 1   
    27    21    27 1   
@<TRIPOS>SUBSTRUCTURE
     1 QWH         1 TEMP              0 ****  ****    0 ROOT
