@<TRIPOS>MOLECULE
QWI
   50    54     1     0     0
SMALL
No Charge or Current Charge


@<TRIPOS>ATOM
      1 C2          -7.3930    -0.3170    -1.1190 ca         1 QWI      -0.110000
      2 C3          -6.6560    -1.5070    -1.0150 ca         1 QWI      -0.109500
      3 C4          -5.3460    -1.4830    -0.5050 ca         1 QWI      -0.106000
      4 C5          -4.7610    -0.2670    -0.0940 ca         1 QWI      -0.076300
      5 C6          -5.5100     0.9250    -0.2020 ca         1 QWI      -0.106000
      6 C7          -6.8200     0.8990    -0.7120 ca         1 QWI      -0.109500
      7 C8          -3.3270    -0.2540     0.4610 c6         1 QWI      -0.013400
      8 C9          -3.2690     0.2690     1.9190 c6         1 QWI      -0.108400
      9 C10         -1.8150     0.3010     2.4400 c6         1 QWI       0.154800
     10 N11         -0.9420     1.1020     1.5450 n7         1 QWI      -0.858400
     11 C15         -2.3670     0.5880    -0.4260 c6         1 QWI      -0.097400
     12 C17          1.4030     1.7120    -0.3190 c6         1 QWI       0.216800
     13 C18         -0.0940     1.6720    -0.7130 c6         1 QWI      -0.091400
     14 C20          1.3020    -0.6750     0.3750 c6         1 QWI       0.216800
     15 C21         -0.1930    -0.7370    -0.0190 c6         1 QWI      -0.091400
     16 C22          3.4110     0.2330    -0.6950 ca         1 QWI       0.456900
     17 N23          3.8500     0.9160    -1.7770 nb         1 QWI      -0.314000
     18 C24          5.1660     0.8200    -2.0760 ca         1 QWI       0.186900
     19 N25          6.0990     0.1120    -1.4020 nb         1 QWI      -0.227000
     20 C26          5.6500    -0.5560    -0.3270 ca         1 QWI       0.121500
     21 C70         -0.9050     0.6450     0.1270 c6         1 QWI       0.182200
     22 N27          6.2930    -1.3420     0.5760 na         1 QWI      -0.414300
     23 C29          5.3700    -1.7820     1.5160 cc         1 QWI       0.395700
     24 N30          4.1470    -1.2990     1.2390 nd         1 QWI      -0.557100
     25 C31          4.3350    -0.5350     0.0730 ca         1 QWI      -0.090600
     26 N1           2.0240     0.3590    -0.4180 nh         1 QWI      -0.747300
     27 H2          -8.4070    -0.3360    -1.5140 ha         1 QWI       0.112000
     28 H3          -7.0980    -2.4500    -1.3300 ha         1 QWI       0.111500
     29 H7          -7.3900     1.8220    -0.7920 ha         1 QWI       0.111500
     30 H4          -4.7870    -2.4130    -0.4320 ha         1 QWI       0.109500
     31 H6          -5.0800     1.8740     0.1070 ha         1 QWI       0.109500
     32 H8          -2.9620    -1.2890     0.4680 hc         1 QWI       0.053700
     33 H91C        -3.6970     1.2780     1.9820 hc         1 QWI       0.046700
     34 H92C        -3.8800    -0.3700     2.5700 hc         1 QWI       0.046700
     35 H151        -2.3660     0.1830    -1.4470 hc         1 QWI       0.048200
     36 H152        -2.7590     1.6110    -0.5120 hc         1 QWI       0.048200
     37 H101        -1.8000     0.7380     3.4500 h1         1 QWI       0.051700
     38 H102        -1.4290    -0.7250     2.5290 h1         1 QWI       0.051700
     39 H11         -1.2930     2.0650     1.5530 hn         1 QWI       0.407000
     40 H172         1.4990     2.0950     0.7090 h1         1 QWI       0.076700
     41 H181        -0.5240     2.6770    -0.6060 hc         1 QWI       0.050950
     42 H182        -0.1700     1.4200    -1.7800 hc         1 QWI       0.050950
     43 H201         1.3900    -0.4630     1.4520 h1         1 QWI       0.076700
     44 H202         1.7370    -1.6700     0.1980 h1         1 QWI       0.076700
     45 H211        -0.2660    -1.0770    -1.0610 hc         1 QWI       0.050950
     46 H212        -0.6850    -1.5120     0.5800 hc         1 QWI       0.050950
     47 H24          5.5100     1.3710    -2.9500 h5         1 QWI       0.044100
     48 H27          7.2780    -1.5700     0.5720 hn         1 QWI       0.368000
     49 H29          5.6390    -2.4240     2.3470 h5         1 QWI       0.064800
     50 H171         1.9110     2.4340    -0.9750 h1         1 QWI       0.076700
@<TRIPOS>BOND
     1     1     2 ar  
     2     1     6 ar  
     3     1    27 1   
     4     2     3 ar  
     5     2    28 1   
     6     3     4 ar  
     7     3    30 1   
     8     4     5 ar  
     9     4     7 1   
    10     5     6 ar  
    11     5    31 1   
    12     6    29 1   
    13     7     8 1   
    14     7    11 1   
    15     7    32 1   
    16     8     9 1   
    17     8    33 1   
    18     8    34 1   
    19     9    10 1   
    20     9    37 1   
    21     9    38 1   
    22    10    21 1   
    23    10    39 1   
    24    11    21 1   
    25    11    35 1   
    26    11    36 1   
    27    12    13 1   
    28    12    26 1   
    29    12    40 1   
    30    12    50 1   
    31    13    21 1   
    32    13    41 1   
    33    13    42 1   
    34    14    15 1   
    35    14    26 1   
    36    14    43 1   
    37    14    44 1   
    38    15    21 1   
    39    15    45 1   
    40    15    46 1   
    41    16    17 ar  
    42    16    25 ar  
    43    16    26 1   
    44    17    18 ar  
    45    18    19 ar  
    46    18    47 1   
    47    19    20 ar  
    48    20    22 1   
    49    20    25 ar  
    50    22    23 1   
    51    22    48 1   
    52    23    24 2   
    53    23    49 1   
    54    24    25 1   
@<TRIPOS>SUBSTRUCTURE
     1 QWI         1 TEMP              0 ****  ****    0 ROOT
