@<TRIPOS>MOLECULE
QWI
   50    54     1     0     0
SMALL
bcc


@<TRIPOS>ATOM
      1 C2          -6.7390    -1.0330    -1.6190 ca         1 QWI      -0.128000
      2 C3          -5.9880    -2.0660    -1.0770 ca         1 QWI      -0.127500
      3 C4          -4.8150    -1.7860    -0.3860 ca         1 QWI      -0.124000
      4 C5          -4.3700    -0.4770    -0.2210 ca         1 QWI      -0.076300
      5 C6          -5.1350     0.5510    -0.7730 ca         1 QWI      -0.124000
      6 C7          -6.3070     0.2780    -1.4640 ca         1 QWI      -0.127500
      7 C8          -3.1060    -0.1910     0.5520 c6         1 QWI      -0.013400
      8 C9          -3.3890     0.5600     1.8560 c6         1 QWI      -0.108400
      9 C10         -2.0880     0.8550     2.5960 c6         1 QWI       0.154800
     10 N11         -1.0950     1.5480     1.7910 n7         1 QWI      -0.803200
     11 C15         -2.0830     0.5930    -0.2760 c6         1 QWI      -0.097400
     12 C17          1.4280     2.1220     0.3200 c6         1 QWI       0.216800
     13 C18          0.0630     1.8750    -0.3090 c6         1 QWI      -0.091400
     14 C20          1.3890    -0.0610     1.3570 c6         1 QWI       0.216800
     15 C21          0.0260    -0.3660     0.7500 c6         1 QWI      -0.091400
     16 C22          3.1650     0.5030    -0.2620 ca         1 QWI       0.785200
     17 N23          3.6320     1.3970    -1.1480 nb         1 QWI      -0.840000
     18 C24          4.6680     1.1070    -1.9220 ca         1 QWI       0.712900
     19 N25          5.3680    -0.0110    -1.9670 nb         1 QWI      -0.753000
     20 C26          4.9100    -0.9010    -1.0880 ca         1 QWI       0.449800
     21 C70         -0.8000     0.9080     0.5090 c6         1 QWI       0.182200
     22 N27          5.3880    -2.1510    -0.8520 na         1 QWI      -0.364000
     23 C29          4.6210    -2.6920     0.1310 cc         1 QWI       0.395700
     24 N30          3.6860    -1.8890     0.5440 nd         1 QWI      -0.557100
     25 C31          3.8400    -0.7460    -0.2080 ca         1 QWI      -0.221200
     26 N1           2.1280     0.8620     0.5120 nh         1 QWI      -0.747300
     27 H2          -7.6540    -1.2470    -2.1560 ha         1 QWI       0.130000
     28 H3          -6.3130    -3.0920    -1.1900 ha         1 QWI       0.129500
     29 H7          -6.8860     1.0930    -1.8820 ha         1 QWI       0.129500
     30 H4          -4.2360    -2.6000     0.0340 ha         1 QWI       0.127500
     31 H6          -4.8180     1.5820    -0.6640 ha         1 QWI       0.127500
     32 H8          -2.6670    -1.1600     0.8160 hc         1 QWI       0.053700
     33 H91C        -3.9010     1.5040     1.6340 hc         1 QWI       0.046700
     34 H92C        -4.0580    -0.0240     2.4930 hc         1 QWI       0.046700
     35 H151        -1.8390     0.0460    -1.1920 hc         1 QWI       0.048200
     36 H152        -2.5290     1.5440    -0.5940 hc         1 QWI       0.048200
     37 H101        -2.2890     1.4620     3.4810 h1         1 QWI       0.051700
     38 H102        -1.6600    -0.0820     2.9650 h1         1 QWI       0.051700
     39 H11         -1.4300     2.4890     1.6100 hn         1 QWI       0.351800
     40 H172         1.3120     2.5960     1.2970 h1         1 QWI       0.076700
     41 H181        -0.4610     2.8290    -0.4260 hc         1 QWI       0.050950
     42 H182         0.2020     1.4690    -1.3160 hc         1 QWI       0.050950
     43 H201         1.2620     0.4060     2.3370 h1         1 QWI       0.076700
     44 H202         1.9540    -0.9760     1.5000 h1         1 QWI       0.076700
     45 H211         0.1650    -0.8830    -0.2050 hc         1 QWI       0.050950
     46 H212        -0.4960    -1.0670     1.4040 hc         1 QWI       0.050950
     47 H24          4.9730     1.8920    -2.6070 h5         1 QWI       0.044100
     48 H27          6.1680    -2.5930    -1.3130 hn         1 QWI       0.317700
     49 H29          4.7990    -3.6880     0.5040 h5         1 QWI       0.064800
     50 H171         2.0250     2.7800    -0.3030 h1         1 QWI       0.076700
@<TRIPOS>BOND
     1     1     2 ar  
     2     1     6 ar  
     3     1    27 1   
     4     2     3 ar  
     5     2    28 1   
     6     3     4 ar  
     7     3    30 1   
     8     4     5 ar  
     9     4     7 1   
    10     5     6 ar  
    11     5    31 1   
    12     6    29 1   
    13     7     8 1   
    14     7    11 1   
    15     7    32 1   
    16     8     9 1   
    17     8    33 1   
    18     8    34 1   
    19     9    10 1   
    20     9    37 1   
    21     9    38 1   
    22    10    21 1   
    23    10    39 1   
    24    11    21 1   
    25    11    35 1   
    26    11    36 1   
    27    12    13 1   
    28    12    26 1   
    29    12    40 1   
    30    12    50 1   
    31    13    21 1   
    32    13    41 1   
    33    13    42 1   
    34    14    15 1   
    35    14    26 1   
    36    14    43 1   
    37    14    44 1   
    38    15    21 1   
    39    15    45 1   
    40    15    46 1   
    41    16    17 ar  
    42    16    25 ar  
    43    16    26 1   
    44    17    18 ar  
    45    18    19 ar  
    46    18    47 1   
    47    19    20 ar  
    48    20    22 1   
    49    20    25 ar  
    50    22    23 1   
    51    22    48 1   
    52    23    24 2   
    53    23    49 1   
    54    24    25 1   
@<TRIPOS>SUBSTRUCTURE
     1 QWI         1 TEMP              0 ****  ****    0 ROOT
