@<TRIPOS>MOLECULE
QWJ
   50    51     1     0     0
SMALL
bcc


@<TRIPOS>ATOM
      1 C4          61.6570    24.1840    10.9420 c6         1 QWJ       0.125100
      2 C3          63.1800    24.1130    11.0090 c6         1 QWJ       0.119100
      3 C5          61.2530    24.7590     9.5910 c6         1 QWJ       0.140100
      4 C1          63.2360    25.9890     9.3780 c6         1 QWJ       0.208200
      5 C2          63.7870    25.4790    10.7130 c6         1 QWJ       0.091100
      6 C6          59.7540    24.9020     9.4420 c3         1 QWJ       0.150400
      7 C10         67.0700    27.8270     5.9050 c6         1 QWJ       0.134100
      8 C9          65.8130    28.6410     5.6280 c6         1 QWJ       0.158100
      9 C11         66.6910    26.5250     6.6310 c6         1 QWJ       0.111100
     10 C7          64.7290    27.4710     7.5270 c6         1 QWJ       0.191200
     11 C8          64.9940    28.8400     6.9020 c6         1 QWJ       0.095100
     12 C12         67.8880    25.7310     7.1420 c3         1 QWJ       0.004700
     13 C13         70.2860    24.4230     6.6650 c3         1 QWJ       0.104800
     14 C14         71.0970    25.5610     7.0540 c1         1 QWJ      -0.167100
     15 C15         71.7530    26.5120     7.3860 c1         1 QWJ      -0.120500
     16 O5          61.8410    26.0340     9.3830 os         1 QWJ      -0.356600
     17 O2          65.1790    25.3190    10.6630 oh         1 QWJ      -0.608800
     18 O3          63.5310    23.6360    12.2840 oh         1 QWJ      -0.605800
     19 O4          61.1230    24.9930    11.9600 oh         1 QWJ      -0.587800
     20 O6          59.4680    25.2300     8.1030 oh         1 QWJ      -0.592800
     21 O11         65.9440    26.8250     7.7970 os         1 QWJ      -0.404600
     22 O8          63.8040    29.4850     6.5320 oh         1 QWJ      -0.591800
     23 O9          66.1990    29.8720     5.0760 oh         1 QWJ      -0.575800
     24 O10         67.6850    27.5900     4.6670 oh         1 QWJ      -0.580800
     25 S1          63.8460    27.6780     9.0860 ss         1 QWJ      -0.272200
     26 S12         68.7700    24.9050     5.7840 ss         1 QWJ      -0.324200
     27 HC4         61.2650    23.1580    11.0000 h1         1 QWJ       0.050700
     28 HC3         63.5140    23.4180    10.2220 h1         1 QWJ       0.047700
     29 HC5         61.6120    24.0540     8.8250 h1         1 QWJ       0.050700
     30 HC1         63.6180    25.3530     8.5650 h2         1 QWJ       0.063700
     31 HC2         63.4870    26.1820    11.5040 h1         1 QWJ       0.073700
     32 HC6B        59.3820    25.6640    10.1360 h1         1 QWJ       0.039200
     33 HC6A        59.2960    23.9480     9.7340 h1         1 QWJ       0.039200
     34 HC10        67.7220    28.4080     6.5780 h1         1 QWJ       0.051700
     35 HC9         65.1910    28.0670     4.9210 h1         1 QWJ       0.054700
     36 HC11        66.0890    25.9020     5.9490 h1         1 QWJ       0.062700
     37 HC7         64.1060    26.8700     6.8490 h2         1 QWJ       0.076700
     38 HC8         65.5850    29.4410     7.6080 h1         1 QWJ       0.063700
     39 H12B        67.5400    24.9720     7.8430 h1         1 QWJ       0.079700
     40 H12A        68.5800    26.3950     7.6660 h1         1 QWJ       0.079700
     41 H13A        70.8350    23.7740     5.9810 h1         1 QWJ       0.089200
     42 H13B        70.0210    23.8230     7.5370 h1         1 QWJ       0.089200
     43 HC15        72.3360    27.3560     7.6770 ha         1 QWJ       0.173500
     44 HO2         65.5780    26.1700    10.4420 ho         1 QWJ       0.435000
     45 HO3         64.4880    23.6820    12.3830 ho         1 QWJ       0.432000
     46 HO4         61.4720    24.6840    12.8030 ho         1 QWJ       0.424000
     47 HO6         58.5150    25.3250     8.0170 ho         1 QWJ       0.408000
     48 HO8         63.4100    29.8980     7.3060 ho         1 QWJ       0.427000
     49 HO9         65.4000    30.3690     4.8720 ho         1 QWJ       0.419000
     50 HO10        68.5040    27.1000     4.8100 ho         1 QWJ       0.426000
@<TRIPOS>BOND
     1     1     2 1   
     2     1     3 1   
     3     1    19 1   
     4     1    27 1   
     5     2     5 1   
     6     2    18 1   
     7     2    28 1   
     8     3     6 1   
     9     3    16 1   
    10     3    29 1   
    11     4     5 1   
    12     4    16 1   
    13     4    25 1   
    14     4    30 1   
    15     5    17 1   
    16     5    31 1   
    17     6    20 1   
    18     6    32 1   
    19     6    33 1   
    20     7     8 1   
    21     7     9 1   
    22     7    24 1   
    23     7    34 1   
    24     8    11 1   
    25     8    23 1   
    26     8    35 1   
    27     9    12 1   
    28     9    21 1   
    29     9    36 1   
    30    10    11 1   
    31    10    21 1   
    32    10    25 1   
    33    10    37 1   
    34    11    22 1   
    35    11    38 1   
    36    12    26 1   
    37    12    39 1   
    38    12    40 1   
    39    13    14 1   
    40    13    26 1   
    41    13    41 1   
    42    13    42 1   
    43    14    15 3   
    44    15    43 1   
    45    17    44 1   
    46    18    45 1   
    47    19    46 1   
    48    20    47 1   
    49    22    48 1   
    50    23    49 1   
    51    24    50 1   
@<TRIPOS>SUBSTRUCTURE
     1 QWJ         1 TEMP              0 ****  ****    0 ROOT
