@<TRIPOS>MOLECULE
QWJ
   50    51     1     0     0
SMALL
No Charge or Current Charge


@<TRIPOS>ATOM
      1 C4          62.0670    24.0530    10.9020 c6         1 QWJ       0.148300
      2 C3          63.5930    24.1760    10.6090 c6         1 QWJ       0.142300
      3 C5          61.2780    24.6520     9.6910 c6         1 QWJ       0.163300
      4 C1          63.0800    26.1490     9.0660 c6         1 QWJ       0.279300
      5 C2          63.9830    25.6400    10.2390 c6         1 QWJ       0.114300
      6 C6          59.7290    24.6250     9.9070 c3         1 QWJ       0.173600
      7 C10         67.1100    27.9680     5.8720 c6         1 QWJ       0.157300
      8 C9          65.9060    28.8650     5.4220 c6         1 QWJ       0.181300
      9 C11         66.5660    26.6670     6.5570 c6         1 QWJ       0.134300
     10 C7          64.4850    27.7340     7.1990 c6         1 QWJ       0.262300
     11 C8          64.9230    29.1060     6.6050 c6         1 QWJ       0.118300
     12 C12         67.6810    25.7970     7.2080 c3         1 QWJ       0.052600
     13 C13         69.9670    24.0930     7.1300 c3         1 QWJ       0.152700
     14 C14         70.7400    25.0050     7.9830 c1         1 QWJ      -0.167100
     15 C15         71.3530    25.7740     8.6900 c1         1 QWJ      -0.208000
     16 O5          61.6920    26.0200     9.4340 os         1 QWJ      -0.403000
     17 O2          65.3970    25.7000     9.9340 oh         1 QWJ      -0.731000
     18 O3          64.3640    23.7440    11.7440 oh         1 QWJ      -0.668000
     19 O4          61.7700    24.7210    12.1460 oh         1 QWJ      -0.710000
     20 O6          58.9880    25.1210     8.7720 oh         1 QWJ      -0.715000
     21 O11         65.6520    27.0070     7.6260 os         1 QWJ      -0.451000
     22 O8          63.7930    29.8960     6.1610 oh         1 QWJ      -0.714000
     23 O9          66.3380    30.1400     4.9090 oh         1 QWJ      -0.638000
     24 O10         67.9640    27.6500     4.7510 oh         1 QWJ      -0.703000
     25 S1          63.3790    27.9290     8.6610 ss         1 QWJ      -0.368000
     26 S12         68.8520    25.0300     5.9850 ss         1 QWJ      -0.420000
     27 HC4         61.8160    22.9850    10.9840 h1         1 QWJ       0.050700
     28 HC3         63.8220    23.5350     9.7440 h1         1 QWJ       0.047700
     29 HC5         61.4960    24.0500     8.7970 h1         1 QWJ       0.050700
     30 HC1         63.2700    25.5650     8.1530 h2         1 QWJ       0.063700
     31 HC2         63.7700    26.2830    11.1070 h1         1 QWJ       0.073700
     32 HC6B        59.4940    25.2230    10.7980 h1         1 QWJ       0.039200
     33 HC6A        59.4340    23.5890    10.1240 h1         1 QWJ       0.039200
     34 HC10        67.6860    28.5260     6.6270 h1         1 QWJ       0.051700
     35 HC9         65.3580    28.3210     4.6380 h1         1 QWJ       0.054700
     36 HC11        66.0290    26.0530     5.8190 h1         1 QWJ       0.062700
     37 HC7         63.9320    27.1550     6.4440 h2         1 QWJ       0.076700
     38 HC8         65.4660    29.6480     7.3950 h1         1 QWJ       0.063700
     39 H12B        67.2030    24.9890     7.7770 h1         1 QWJ       0.079700
     40 H12A        68.2460    26.4180     7.9140 h1         1 QWJ       0.079700
     41 H13A        70.6590    23.4810     6.5360 h1         1 QWJ       0.089200
     42 H13B        69.3670    23.4200     7.7570 h1         1 QWJ       0.089200
     43 HC15        71.9060    26.4550     9.3070 ha         1 QWJ       0.261000
     44 HO2         65.5000    26.3100     9.1520 ho         1 QWJ       0.534000
     45 HO3         65.2670    24.1060    11.5770 ho         1 QWJ       0.471000
     46 HO4         62.5430    24.5100    12.7240 ho         1 QWJ       0.523000
     47 HO6         58.0380    25.1440     9.0360 ho         1 QWJ       0.507000
     48 HO8         63.1780    29.9750     6.9290 ho         1 QWJ       0.526000
     49 HO9         65.5270    30.6990     4.9330 ho         1 QWJ       0.458000
     50 HO10        68.4660    26.8370     5.0070 ho         1 QWJ       0.525000
@<TRIPOS>BOND
     1     1     2 1   
     2     1     3 1   
     3     1    19 1   
     4     1    27 1   
     5     2     5 1   
     6     2    18 1   
     7     2    28 1   
     8     3     6 1   
     9     3    16 1   
    10     3    29 1   
    11     4     5 1   
    12     4    16 1   
    13     4    25 1   
    14     4    30 1   
    15     5    17 1   
    16     5    31 1   
    17     6    20 1   
    18     6    32 1   
    19     6    33 1   
    20     7     8 1   
    21     7     9 1   
    22     7    24 1   
    23     7    34 1   
    24     8    11 1   
    25     8    23 1   
    26     8    35 1   
    27     9    12 1   
    28     9    21 1   
    29     9    36 1   
    30    10    11 1   
    31    10    21 1   
    32    10    25 1   
    33    10    37 1   
    34    11    22 1   
    35    11    38 1   
    36    12    26 1   
    37    12    39 1   
    38    12    40 1   
    39    13    14 1   
    40    13    26 1   
    41    13    41 1   
    42    13    42 1   
    43    14    15 3   
    44    15    43 1   
    45    17    44 1   
    46    18    45 1   
    47    19    46 1   
    48    20    47 1   
    49    22    48 1   
    50    23    49 1   
    51    24    50 1   
@<TRIPOS>SUBSTRUCTURE
     1 QWJ         1 TEMP              0 ****  ****    0 ROOT
