@<TRIPOS>MOLECULE
QWK
   42    44     1     0     0
SMALL
bcc


@<TRIPOS>ATOM
      1 C2         -22.5620    14.2790    13.1660 ca         1 QWK       0.787900
      2 C8         -28.8010    14.9230    12.7190 c3         1 QWK       0.215100
      3 C9         -29.7950    14.1370    13.5330 ca         1 QWK      -0.091300
      4 C10        -29.6470    14.0380    14.9150 ca         1 QWK      -0.114500
      5 C11        -30.5670    13.3320    15.6750 ca         1 QWK      -0.132000
      6 C12        -31.6500    12.7100    15.0620 ca         1 QWK      -0.125000
      7 C13        -31.8030    12.8000    13.6870 ca         1 QWK      -0.132000
      8 C14        -30.8780    13.5080    12.9290 ca         1 QWK      -0.114500
      9 C15        -27.1380    13.1830    12.5330 c6         1 QWK       0.162800
     10 C16        -25.8370    12.6980    13.1510 c6         1 QWK      -0.133700
     11 N18        -23.5080    13.3520    13.2620 nb         1 QWK      -0.773000
     12 C19        -20.0730    14.4320    13.4200 c          1 QWK       0.680100
     13 C20        -18.9330    13.4900    13.7500 c3         1 QWK      -0.161400
     14 C21        -17.5650    14.1410    13.6740 c3         1 QWK      -0.077100
     15 N1         -21.2900    13.7950    13.4150 ns         1 QWK      -0.560400
     16 N3         -22.7480    15.5530    12.8660 nb         1 QWK      -0.700000
     17 C4         -24.0050    15.9160    12.6450 ca         1 QWK       0.468200
     18 C5         -25.0770    15.0440    12.7140 ca         1 QWK      -0.353900
     19 C6         -26.4900    15.4750    12.4470 c6         1 QWK       0.232100
     20 N7         -27.4350    14.5260    12.9980 n3         1 QWK      -0.717600
     21 C17        -24.7590    13.7270    13.0360 ca         1 QWK       0.501600
     22 O22        -19.9170    15.6110    13.1950 o          1 QWK      -0.525100
     23 H1         -28.8970    15.9850    12.9680 h1         1 QWK       0.039700
     24 H2         -29.0480    14.8360    11.6480 h1         1 QWK       0.039700
     25 H3         -28.8020    14.5150    15.3960 ha         1 QWK       0.135000
     26 H4         -30.4420    13.2650    16.7480 ha         1 QWK       0.130500
     27 H5         -32.3670    12.1570    15.6550 ha         1 QWK       0.130000
     28 H6         -32.6390    12.3150    13.2000 ha         1 QWK       0.130500
     29 H7         -30.9990    13.5690    11.8530 ha         1 QWK       0.135000
     30 H8         -27.0760    13.1430    11.4320 h1         1 QWK       0.042700
     31 H9         -27.9450    12.5120    12.8270 h1         1 QWK       0.042700
     32 H10        -25.9930    12.4780    14.2120 hc         1 QWK       0.073200
     33 H11        -25.5090    11.7680    12.6830 hc         1 QWK       0.073200
     34 H12        -18.9840    12.6300    13.0740 hc         1 QWK       0.058700
     35 H13        -19.1070    13.0830    14.7510 hc         1 QWK       0.058700
     36 H14        -16.7940    13.4110    13.9190 hc         1 QWK       0.044367
     37 H15        -17.3540    14.5200    12.6750 hc         1 QWK       0.044367
     38 H16        -17.4710    14.9690    14.3750 hc         1 QWK       0.044367
     39 H17        -21.2800    12.8070    13.6280 hn         1 QWK       0.331500
     40 H18        -24.1650    16.9630    12.4040 h4         1 QWK       0.026100
     41 H19        -26.6650    16.4570    12.8950 h1         1 QWK       0.042200
     42 H20        -26.6260    15.6010    11.3580 h1         1 QWK       0.042200
@<TRIPOS>BOND
     1     1    11 ar  
     2     1    15 1   
     3     1    16 ar  
     4     2     3 1   
     5     2    20 1   
     6     2    23 1   
     7     2    24 1   
     8     3     4 ar  
     9     3     8 ar  
    10     4     5 ar  
    11     4    25 1   
    12     5     6 ar  
    13     5    26 1   
    14     6     7 ar  
    15     6    27 1   
    16     7     8 ar  
    17     7    28 1   
    18     8    29 1   
    19     9    10 1   
    20     9    20 1   
    21     9    30 1   
    22     9    31 1   
    23    10    21 1   
    24    10    32 1   
    25    10    33 1   
    26    11    21 ar  
    27    12    13 1   
    28    12    15 1   
    29    12    22 2   
    30    13    14 1   
    31    13    34 1   
    32    13    35 1   
    33    14    36 1   
    34    14    37 1   
    35    14    38 1   
    36    15    39 1   
    37    16    17 ar  
    38    17    18 ar  
    39    17    40 1   
    40    18    19 1   
    41    18    21 ar  
    42    19    20 1   
    43    19    41 1   
    44    19    42 1   
@<TRIPOS>SUBSTRUCTURE
     1 QWK         1 TEMP              0 ****  ****    0 ROOT
