@<TRIPOS>MOLECULE
QWK
   42    44     1     0     0
SMALL
No Charge or Current Charge


@<TRIPOS>ATOM
      1 C2         -22.4570    14.2920    13.3130 ca         1 QWK       0.261900
      2 C8         -28.7990    15.0020    12.8140 c3         1 QWK       0.215100
      3 C9         -29.8720    14.1650    13.5060 ca         1 QWK      -0.091300
      4 C10        -30.0020    14.1980    14.9080 ca         1 QWK      -0.096500
      5 C11        -30.9880    13.4290    15.5500 ca         1 QWK      -0.114000
      6 C12        -31.8520    12.6210    14.7920 ca         1 QWK      -0.107000
      7 C13        -31.7290    12.5820    13.3930 ca         1 QWK      -0.114000
      8 C14        -30.7420    13.3510    12.7510 ca         1 QWK      -0.096500
      9 C15        -27.1110    13.1870    12.7060 c6         1 QWK       0.162800
     10 C16        -25.7720    12.7060    13.3060 c6         1 QWK      -0.133700
     11 N18        -23.4070    13.3420    13.4020 nb         1 QWK      -0.247000
     12 C19        -20.0050    14.4820    13.9270 c          1 QWK       0.613100
     13 C20        -18.7560    13.5970    14.0250 c3         1 QWK      -0.161400
     14 C21        -17.7500    13.8990    12.8920 c3         1 QWK      -0.077100
     15 N1         -21.1440    13.8210    13.5090 ns         1 QWK      -0.326900
     16 N3         -22.6260    15.5960    13.0110 nb         1 QWK      -0.174000
     17 C4         -23.8970    15.9950    12.7970 ca         1 QWK       0.139900
     18 C5         -24.9720    15.0920    12.8790 ca         1 QWK      -0.223300
     19 C6         -26.4070    15.5340    12.6190 c6         1 QWK       0.232100
     20 N7         -27.4160    14.5760    13.1390 n3         1 QWK      -0.717600
     21 C17        -24.6730    13.7520    13.1830 ca         1 QWK       0.173300
     22 O22        -19.9830    15.6660    14.2350 o          1 QWK      -0.525100
     23 H1         -28.9450    16.0470    13.1200 h1         1 QWK       0.039700
     24 H2         -28.9560    14.9670    11.7270 h1         1 QWK       0.039700
     25 H3         -29.3320    14.8200    15.4990 ha         1 QWK       0.117000
     26 H4         -31.0810    13.4590    16.6330 ha         1 QWK       0.112500
     27 H5         -32.6160    12.0250    15.2880 ha         1 QWK       0.112000
     28 H6         -32.3970    11.9560    12.8050 ha         1 QWK       0.112500
     29 H7         -30.6530    13.3140    11.6680 ha         1 QWK       0.117000
     30 H8         -27.0550    13.1370    11.6080 h1         1 QWK       0.042700
     31 H9         -27.9000    12.4880    13.0200 h1         1 QWK       0.042700
     32 H10        -25.9210    12.4740    14.3690 hc         1 QWK       0.073200
     33 H11        -25.4670    11.7700    12.8200 hc         1 QWK       0.073200
     34 H12        -19.0370    12.5390    13.9600 hc         1 QWK       0.058700
     35 H13        -18.2610    13.7900    14.9840 hc         1 QWK       0.058700
     36 H14        -16.8660    13.2570    12.9820 hc         1 QWK       0.044367
     37 H15        -18.2050    13.7200    11.9100 hc         1 QWK       0.044367
     38 H16        -17.4190    14.9440    12.9330 hc         1 QWK       0.044367
     39 H17        -21.0290    12.8300    13.3430 hn         1 QWK       0.165000
     40 H18        -24.0500    17.0450    12.5550 h4         1 QWK       0.026100
     41 H19        -26.5590    16.5240    13.0760 h1         1 QWK       0.042200
     42 H20        -26.5320    15.6620    11.5330 h1         1 QWK       0.042200
@<TRIPOS>BOND
     1     1    11 ar  
     2     1    15 1   
     3     1    16 ar  
     4     2     3 1   
     5     2    20 1   
     6     2    23 1   
     7     2    24 1   
     8     3     4 ar  
     9     3     8 ar  
    10     4     5 ar  
    11     4    25 1   
    12     5     6 ar  
    13     5    26 1   
    14     6     7 ar  
    15     6    27 1   
    16     7     8 ar  
    17     7    28 1   
    18     8    29 1   
    19     9    10 1   
    20     9    20 1   
    21     9    30 1   
    22     9    31 1   
    23    10    21 1   
    24    10    32 1   
    25    10    33 1   
    26    11    21 ar  
    27    12    13 1   
    28    12    15 1   
    29    12    22 2   
    30    13    14 1   
    31    13    34 1   
    32    13    35 1   
    33    14    36 1   
    34    14    37 1   
    35    14    38 1   
    36    15    39 1   
    37    16    17 ar  
    38    17    18 ar  
    39    17    40 1   
    40    18    19 1   
    41    18    21 ar  
    42    19    20 1   
    43    19    41 1   
    44    19    42 1   
@<TRIPOS>SUBSTRUCTURE
     1 QWK         1 TEMP              0 ****  ****    0 ROOT
