@<TRIPOS>MOLECULE
QWL
   40    43     1     0     0
SMALL
No Charge or Current Charge


@<TRIPOS>ATOM
      1 N1         -19.5880     6.1240    26.9720 ns         1 QWL      -0.163000
      2 C4         -15.5830     6.1190    25.7090 ca         1 QWL       0.356900
      3 C5         -17.1920     5.4850    27.2500 ca         1 QWL       0.338900
      4 C6         -18.2290     6.1380    26.5340 ca         1 QWL      -0.083000
      5 C7         -20.1700     5.7570    28.1790 c          1 QWL       0.598100
      6 C8         -21.7180     5.8350    28.1970 c6         1 QWL      -0.080400
      7 C10        -22.1210     7.5710    30.0250 c6         1 QWL       0.219800
      8 C13        -23.4250     2.8850    30.9100 ca         1 QWL       0.183000
      9 C15        -22.3400     3.4290    28.7980 ca         1 QWL      -0.040000
     10 C17        -17.8850     6.8050    25.3330 ca         1 QWL      -0.005000
     11 C14        -22.8830     2.4740    29.6740 ca         1 QWL       0.068000
     12 Cl         -24.1160     1.7140    32.0330 cl         1 QWL      -0.184000
     13 C12        -23.4220     4.2430    31.2630 ca         1 QWL      -0.183000
     14 C16        -22.3360     4.7930    29.1500 ca         1 QWL      -0.144300
     15 C11        -22.8800     5.1950    30.3920 ca         1 QWL       0.362000
     16 N2         -22.9000     6.5460    30.7420 nu         1 QWL      -0.962200
     17 C9         -22.2080     7.2790    28.5100 c6         1 QWL      -0.081400
     18 O          -19.5310     5.3630    29.1470 o          1 QWL      -0.561100
     19 N          -15.8990     5.4730    26.8520 nb         1 QWL      -0.644000
     20 C18        -18.8390     7.4840    24.5400 ca         1 QWL      -0.159000
     21 C          -18.4410     8.1310    23.3600 ca         1 QWL       0.189000
     22 F          -19.3580     8.7770    22.6090 f          1 QWL      -0.178000
     23 C3         -16.5340     6.7920    24.9200 ca         1 QWL      -0.106000
     24 C2         -16.1410     7.4440    23.7340 ca         1 QWL      -0.049000
     25 C1         -17.0990     8.1140    22.9540 ca         1 QWL      -0.147000
     26 H1         -20.2490     6.4340    26.2720 hn         1 QWL       0.154000
     27 H2         -14.5340     6.0930    25.4170 h4         1 QWL       0.024100
     28 H3         -17.3890     4.9330    28.1650 h4         1 QWL       0.042100
     29 H4         -22.0480     5.6580    27.1640 hc         1 QWL       0.066700
     30 H5         -21.0660     7.5390    30.3390 h1         1 QWL       0.050700
     31 H6         -22.5010     8.5810    30.2420 h1         1 QWL       0.050700
     32 H7         -21.9210     3.1070    27.8470 ha         1 QWL       0.125000
     33 H8         -23.8450     4.5520    32.2140 ha         1 QWL       0.131000
     34 H9         -23.2730     6.7710    31.6680 hn         1 QWL       0.486000
     35 H10        -21.6280     8.0230    27.9470 hc         1 QWL       0.058700
     36 H11        -23.2520     7.3910    28.1860 hc         1 QWL       0.058700
     37 H12        -19.8870     7.5230    24.8210 ha         1 QWL       0.129000
     38 H13        -15.1000     7.4330    23.4180 ha         1 QWL       0.126000
     39 H14        -16.8030     8.6190    22.0380 ha         1 QWL       0.139000
     40 Cl1        -22.8700     0.7740    29.2010 cl         1 QWL      -0.186000
@<TRIPOS>BOND
     1     1     4 1   
     2     1     5 1   
     3     1    26 1   
     4     2    19 ar  
     5     2    23 ar  
     6     2    27 1   
     7     3     4 ar  
     8     3    19 ar  
     9     3    28 1   
    10     4    10 ar  
    11     5     6 1   
    12     5    18 2   
    13     6    14 1   
    14     6    17 1   
    15     6    29 1   
    16     7    16 1   
    17     7    17 1   
    18     7    30 1   
    19     7    31 1   
    20     8    11 ar  
    21     8    12 1   
    22     8    13 ar  
    23     9    11 ar  
    24     9    14 ar  
    25     9    32 1   
    26    10    20 ar  
    27    10    23 ar  
    28    11    40 1   
    29    13    15 ar  
    30    13    33 1   
    31    14    15 ar  
    32    15    16 1   
    33    16    34 1   
    34    17    35 1   
    35    17    36 1   
    36    20    21 ar  
    37    20    37 1   
    38    21    22 1   
    39    21    25 ar  
    40    23    24 ar  
    41    24    25 ar  
    42    24    38 1   
    43    25    39 1   
@<TRIPOS>SUBSTRUCTURE
     1 QWL         1 TEMP              0 ****  ****    0 ROOT
