@<TRIPOS>MOLECULE
QWL
   40    43     1     0     0
SMALL
abcg2


@<TRIPOS>ATOM
      1 N1         -19.7760     5.6100    26.6220 ns         1 QWL      -0.163000
      2 C4         -15.7430     5.9110    25.7000 ca         1 QWL       0.356900
      3 C5         -17.4660     4.9010    26.8190 ca         1 QWL       0.338900
      4 C6         -18.4120     5.7500    26.2960 ca         1 QWL      -0.083000
      5 C7         -20.2800     5.4840    27.8830 c          1 QWL       0.598100
      6 C8         -21.8090     5.5000    27.9380 c6         1 QWL      -0.080400
      7 C10        -22.0460     7.5470    29.3940 c6         1 QWL       0.219800
      8 C13        -23.1740     3.1930    31.2980 ca         1 QWL       0.183000
      9 C15        -22.3990     3.3200    29.0360 ca         1 QWL      -0.040000
     10 C17        -18.0020     6.7780    25.4040 ca         1 QWL      -0.005000
     11 C14        -22.8240     2.5500    30.1110 ca         1 QWL       0.068000
     12 CL         -23.7050     2.2840    32.6880 cl         1 QWL      -0.184000
     13 C12        -23.1080     4.5710    31.3970 ca         1 QWL      -0.183000
     14 C16        -22.3150     4.7010    29.1130 ca         1 QWL      -0.144300
     15 C11        -22.6860     5.3510    30.3090 ca         1 QWL       0.362000
     16 N2         -22.6820     6.7190    30.4050 nu         1 QWL      -0.962200
     17 C9         -22.3060     6.9590    28.0150 c6         1 QWL      -0.081400
     18 O          -19.5800     5.4140    28.8830 o          1 QWL      -0.561100
     19 N          -16.1430     4.9810    26.5380 nb         1 QWL      -0.644000
     20 C18        -18.8800     7.7300    24.8370 ca         1 QWL      -0.159000
     21 C          -18.3630     8.6680    23.9910 ca         1 QWL       0.189000
     22 F          -19.1920     9.5900    23.4520 f          1 QWL      -0.178000
     23 C3         -16.6140     6.8410    25.0890 ca         1 QWL      -0.106000
     24 C2         -16.1410     7.8330    24.1990 ca         1 QWL      -0.049000
     25 C1         -17.0030     8.7430    23.6470 ca         1 QWL      -0.147000
     26 H1         -20.4410     5.7170    25.8710 hn         1 QWL       0.154000
     27 H2         -14.6830     5.9580    25.4730 h4         1 QWL       0.024100
     28 H3         -17.7680     4.1130    27.4950 h4         1 QWL       0.042100
     29 H4         -22.1850     5.0530    27.0160 hc         1 QWL       0.066700
     30 H5         -20.9670     7.6290    29.5670 h1         1 QWL       0.050700
     31 H6         -22.4690     8.5500    29.4590 h1         1 QWL       0.050700
     32 H7         -22.1190     2.8240    28.1150 ha         1 QWL       0.125000
     33 H8         -23.3900     5.0520    32.3250 ha         1 QWL       0.131000
     34 H9         -22.7440     7.1050    31.3340 hn         1 QWL       0.486000
     35 H10        -21.8190     7.5670    27.2530 hc         1 QWL       0.058700
     36 H11        -23.3790     6.9660    27.8120 hc         1 QWL       0.058700
     37 H12        -19.9360     7.7430    25.0690 ha         1 QWL       0.129000
     38 H13        -15.0850     7.8670    23.9630 ha         1 QWL       0.126000
     39 H14        -16.6670     9.5130    22.9650 ha         1 QWL       0.139000
     40 CL1        -22.9010     0.8150    29.9460 cl         1 QWL      -0.186000
@<TRIPOS>BOND
     1     1     4 1   
     2     1     5 1   
     3     1    26 1   
     4     2    19 ar  
     5     2    23 ar  
     6     2    27 1   
     7     3     4 ar  
     8     3    19 ar  
     9     3    28 1   
    10     4    10 ar  
    11     5     6 1   
    12     5    18 2   
    13     6    14 1   
    14     6    17 1   
    15     6    29 1   
    16     7    16 1   
    17     7    17 1   
    18     7    30 1   
    19     7    31 1   
    20     8    11 ar  
    21     8    12 1   
    22     8    13 ar  
    23     9    11 ar  
    24     9    14 ar  
    25     9    32 1   
    26    10    20 ar  
    27    10    23 ar  
    28    11    40 1   
    29    13    15 ar  
    30    13    33 1   
    31    14    15 ar  
    32    15    16 1   
    33    16    34 1   
    34    17    35 1   
    35    17    36 1   
    36    20    21 ar  
    37    20    37 1   
    38    21    22 1   
    39    21    25 ar  
    40    23    24 ar  
    41    24    25 ar  
    42    24    38 1   
    43    25    39 1   
@<TRIPOS>SUBSTRUCTURE
     1 QWL         1 TEMP              0 ****  ****    0 ROOT
