@<TRIPOS>MOLECULE
QWM
   51    54     1     0     0
SMALL
bcc


@<TRIPOS>ATOM
      1 C11          0.3240     1.5880     0.0870 cp         1 QWM       0.357300
      2 C14         -5.9200     0.0560    -0.0070 cx         1 QWM      -0.152200
      3 C19          2.3110     2.6800    -0.0590 ca         1 QWM       0.295600
      4 C20          1.7290     3.9260     0.1340 ca         1 QWM      -0.186300
      5 C22          0.3560     3.9660     0.3110 ca         1 QWM      -0.113000
      6 C24         -0.3620     2.7830     0.2840 ca         1 QWM      -0.173300
      7 C02         -0.4220    -1.9370    -0.1360 ca         1 QWM       0.962900
      8 C04         -2.3580    -0.8160     0.1020 ca         1 QWM       0.962900
      9 C06         -0.4100     0.2920     0.0460 cp         1 QWM       0.688000
     10 C12         -4.5150     0.3520     0.4500 c3         1 QWM       0.281000
     11 C16          1.6710    -3.2220    -0.4520 c3         1 QWM       0.281000
     12 C26          3.8050     2.5750    -0.2330 c3         1 QWM       0.629600
     13 C30          2.1070    -2.8520    -1.8650 c3         1 QWM      -0.107600
     14 C34          2.0670    -4.6340    -0.1010 cx         1 QWM      -0.152200
     15 C36         -4.4780     0.7560     1.9200 c3         1 QWM      -0.107600
     16 C40         -6.2650     0.1540    -1.4600 cx         1 QWM      -0.122650
     17 C43         -6.7830     1.1770    -0.4920 cx         1 QWM      -0.122650
     18 C46          2.2150    -5.0290     1.3340 cx         1 QWM      -0.122650
     19 C49          3.4270    -4.8930     0.4620 cx         1 QWM      -0.122650
     20 F27          4.4410     2.7980     0.9260 f          1 QWM      -0.227633
     21 F28          4.1820     1.3790    -0.6710 f          1 QWM      -0.227633
     22 F29          4.2580     3.4880    -1.1020 f          1 QWM      -0.227633
     23 N01          0.3040    -0.8070    -0.0880 nb         1 QWM      -0.829500
     24 N03         -1.7510    -1.9930    -0.0430 nb         1 QWM      -0.888000
     25 N05         -1.7250     0.3670     0.1460 nb         1 QWM      -0.829500
     26 N09          0.2330    -3.0920    -0.2770 nu         1 QWM      -0.858900
     27 N18          1.6400     1.5470    -0.0780 nb         1 QWM      -0.587000
     28 H2           2.3170     4.8340     0.1450 ha         1 QWM       0.157000
     29 H3          -0.1470     4.9100     0.4670 ha         1 QWM       0.146000
     30 H4          -1.4340     2.7770     0.4120 ha         1 QWM       0.170000
     31 H5          -4.1180     1.1750    -0.1510 h1         1 QWM       0.077700
     32 H6           2.1540    -2.5390     0.2520 h1         1 QWM       0.077700
     33 H7           1.6220    -3.4910    -2.6040 hc         1 QWM       0.045700
     34 H8           1.8580    -1.8140    -2.0850 hc         1 QWM       0.045700
     35 H9           3.1860    -2.9690    -1.9700 hc         1 QWM       0.045700
     36 H10          1.6740    -5.3920    -0.7750 hc         1 QWM       0.078700
     37 H11         -4.8540    -0.0500     2.5530 hc         1 QWM       0.045700
     38 H12         -3.4620     0.9950     2.2320 hc         1 QWM       0.045700
     39 H13         -5.1000     1.6360     2.0890 hc         1 QWM       0.045700
     40 H14         -5.4800     0.4560    -2.1420 hc         1 QWM       0.074575
     41 H15         -6.9620    -0.5640    -1.8740 hc         1 QWM       0.074575
     42 H16         -7.8350     1.1590    -0.2380 hc         1 QWM       0.074575
     43 H17         -6.3520     2.1710    -0.5250 hc         1 QWM       0.074575
     44 H18          2.0440    -4.2690     2.0870 hc         1 QWM       0.074575
     45 H19          1.9020    -6.0230     1.6270 hc         1 QWM       0.074575
     46 H20          3.9450    -5.7930     0.1560 hc         1 QWM       0.074575
     47 H21          4.0780    -4.0420     0.6250 hc         1 QWM       0.074575
     48 H23         -0.3350    -3.9220    -0.3470 hn         1 QWM       0.449800
     49 N07         -3.6910    -0.8190     0.1950 nu         1 QWM      -0.858900
     50 H1          -6.4230    -0.7220     0.5620 hc         1 QWM       0.078700
     51 H22         -4.1340    -1.7240     0.2080 hn         1 QWM       0.449800
@<TRIPOS>BOND
     1     1     6 ar  
     2     1     9 1   
     3     1    27 ar  
     4     2    10 1   
     5     2    16 1   
     6     2    17 1   
     7     2    50 1   
     8     3     4 ar  
     9     3    12 1   
    10     3    27 ar  
    11     4     5 ar  
    12     4    28 1   
    13     5     6 ar  
    14     5    29 1   
    15     6    30 1   
    16     7    23 ar  
    17     7    24 ar  
    18     7    26 1   
    19     8    24 ar  
    20     8    25 ar  
    21     8    49 1   
    22     9    23 ar  
    23     9    25 ar  
    24    10    15 1   
    25    10    31 1   
    26    10    49 1   
    27    11    13 1   
    28    11    14 1   
    29    11    26 1   
    30    11    32 1   
    31    12    20 1   
    32    12    21 1   
    33    12    22 1   
    34    13    33 1   
    35    13    34 1   
    36    13    35 1   
    37    14    18 1   
    38    14    19 1   
    39    14    36 1   
    40    15    37 1   
    41    15    38 1   
    42    15    39 1   
    43    16    17 1   
    44    16    40 1   
    45    16    41 1   
    46    17    42 1   
    47    17    43 1   
    48    18    19 1   
    49    18    44 1   
    50    18    45 1   
    51    19    46 1   
    52    19    47 1   
    53    26    48 1   
    54    49    51 1   
@<TRIPOS>SUBSTRUCTURE
     1 QWM         1 TEMP              0 ****  ****    0 ROOT
