@<TRIPOS>MOLECULE
QWM
   51    54     1     0     0
SMALL
No Charge or Current Charge


@<TRIPOS>ATOM
      1 C11          0.4100     1.7450     0.0990 cp         1 QWM       0.292000
      2 C14         -6.0120    -0.0610    -0.0300 cx         1 QWM      -0.152200
      3 C19          2.4910     2.8520     0.0110 ca         1 QWM       0.230300
      4 C20          1.8770     4.1090     0.1790 ca         1 QWM      -0.103000
      5 C22          0.4820     4.1830     0.3110 ca         1 QWM      -0.095000
      6 C24         -0.2560     2.9890     0.2700 ca         1 QWM      -0.090000
      7 C02         -0.3920    -1.8490    -0.1440 ca         1 QWM       0.436900
      8 C04         -2.3200    -0.7290     0.1130 ca         1 QWM       0.436900
      9 C06         -0.3490     0.4320     0.0490 cp         1 QWM       0.162000
     10 C12         -4.6150     0.3600     0.4150 c3         1 QWM       0.281000
     11 C16          1.6910    -3.3000    -0.4600 c3         1 QWM       0.281000
     12 C26          4.0230     2.7580    -0.1350 c3         1 QWM       0.265700
     13 C30          2.1140    -2.9940    -1.9110 c3         1 QWM      -0.107600
     14 C34          1.9970    -4.7440    -0.0770 cx         1 QWM      -0.152200
     15 C36         -4.5980     0.8030     1.8920 c3         1 QWM      -0.107600
     16 C40         -6.4400     0.0440    -1.4770 cx         1 QWM      -0.122650
     17 C43         -7.0390     0.9690    -0.4430 cx         1 QWM      -0.122650
     18 C46          2.2560    -5.1380     1.3610 cx         1 QWM      -0.122650
     19 C49          3.3870    -5.1540     0.3580 cx         1 QWM      -0.122650
     20 F27          4.6560     3.2560     0.9530 f          1 QWM      -0.106333
     21 F28          4.4720     1.4900    -0.2990 f          1 QWM      -0.106333
     22 F29          4.4640     3.4660    -1.2010 f          1 QWM      -0.106333
     23 N01          0.3410    -0.7230    -0.1040 nb         1 QWM      -0.303500
     24 N03         -1.7240    -1.9170    -0.0390 nb         1 QWM      -0.362000
     25 N05         -1.6970     0.4610     0.1600 nb         1 QWM      -0.303500
     26 N09          0.2550    -3.0610    -0.2940 nu         1 QWM      -0.914100
     27 N18          1.7640     1.7030    -0.0260 nb         1 QWM      -0.587000
     28 H2           2.4790     5.0140     0.2060 ha         1 QWM       0.139000
     29 H3          -0.0160     5.1420     0.4420 ha         1 QWM       0.128000
     30 H4          -1.3370     3.0270     0.3710 ha         1 QWM       0.152000
     31 H5          -4.3010     1.2110    -0.2080 h1         1 QWM       0.077700
     32 H6           2.2580    -2.6410     0.2140 h1         1 QWM       0.077700
     33 H7           1.5690    -3.6280    -2.6200 hc         1 QWM       0.045700
     34 H8           1.9180    -1.9450    -2.1620 hc         1 QWM       0.045700
     35 H9           3.1870    -3.1770    -2.0410 hc         1 QWM       0.045700
     36 H10          1.4590    -5.4620    -0.6920 hc         1 QWM       0.078700
     37 H11         -4.9020    -0.0190     2.5510 hc         1 QWM       0.045700
     38 H12         -3.5960     1.1320     2.1900 hc         1 QWM       0.045700
     39 H13         -5.2880     1.6400     2.0470 hc         1 QWM       0.045700
     40 H14         -5.7350     0.4680    -2.1890 hc         1 QWM       0.074575
     41 H15         -7.0700    -0.7470    -1.8780 hc         1 QWM       0.074575
     42 H16         -8.0730     0.8010    -0.1490 hc         1 QWM       0.074575
     43 H17         -6.7380     2.0150    -0.4650 hc         1 QWM       0.074575
     44 H18          2.2560    -4.3520     2.1130 hc         1 QWM       0.074575
     45 H19          1.8650    -6.0930     1.7020 hc         1 QWM       0.074575
     46 H20          3.7570    -6.1210     0.0260 hc         1 QWM       0.074575
     47 H21          4.1480    -4.3810     0.4420 hc         1 QWM       0.074575
     48 H23         -0.3540    -3.8760    -0.2680 hn         1 QWM       0.505000
     49 N07         -3.6960    -0.7640     0.2170 nu         1 QWM      -0.914100
     50 H1          -6.3890    -0.9130     0.5310 hc         1 QWM       0.078700
     51 H22         -4.1070    -1.6900     0.1250 hn         1 QWM       0.505000
@<TRIPOS>BOND
     1     1     6 ar  
     2     1     9 1   
     3     1    27 ar  
     4     2    10 1   
     5     2    16 1   
     6     2    17 1   
     7     2    50 1   
     8     3     4 ar  
     9     3    12 1   
    10     3    27 ar  
    11     4     5 ar  
    12     4    28 1   
    13     5     6 ar  
    14     5    29 1   
    15     6    30 1   
    16     7    23 ar  
    17     7    24 ar  
    18     7    26 1   
    19     8    24 ar  
    20     8    25 ar  
    21     8    49 1   
    22     9    23 ar  
    23     9    25 ar  
    24    10    15 1   
    25    10    31 1   
    26    10    49 1   
    27    11    13 1   
    28    11    14 1   
    29    11    26 1   
    30    11    32 1   
    31    12    20 1   
    32    12    21 1   
    33    12    22 1   
    34    13    33 1   
    35    13    34 1   
    36    13    35 1   
    37    14    18 1   
    38    14    19 1   
    39    14    36 1   
    40    15    37 1   
    41    15    38 1   
    42    15    39 1   
    43    16    17 1   
    44    16    40 1   
    45    16    41 1   
    46    17    42 1   
    47    17    43 1   
    48    18    19 1   
    49    18    44 1   
    50    18    45 1   
    51    19    46 1   
    52    19    47 1   
    53    26    48 1   
    54    49    51 1   
@<TRIPOS>SUBSTRUCTURE
     1 QWM         1 TEMP              0 ****  ****    0 ROOT
