@<TRIPOS>MOLECULE
QWP
  152   159     1     0     0
SMALL
bcc


@<TRIPOS>ATOM
      1 CAA        -55.8450    49.9130   -37.0330 c6         1 QWP      -0.136400
      2 CAB        -55.8820    51.4240   -37.2940 c6         1 QWP       0.126800
      3 CAC        -54.9830    52.1450   -36.2950 c3         1 QWP      -0.123100
      4 OAD        -57.2110    51.9070   -37.2060 oh         1 QWP      -0.583800
      5 CAE        -55.4210    51.6820   -38.7410 c6         1 QWP       0.134100
      6 OAF        -55.5730    53.0270   -39.1190 oh         1 QWP      -0.575800
      7 CAG        -56.2090    50.8270   -39.7390 c6         1 QWP       0.167100
      8 CAH        -55.6910    50.9530   -41.1560 c3         1 QWP      -0.088100
      9 OAI        -56.0940    49.4620   -39.3680 os         1 QWP      -0.465600
     10 CAJ        -56.6240    49.1620   -38.0930 c6         1 QWP       0.353900
     11 OAK        -56.4820    47.8000   -37.8980 os         1 QWP      -0.393600
     12 CAL        -57.5490    46.9760   -38.3360 c6         1 QWP       0.123100
     13 CAM        -57.1760    45.5490   -37.9600 c6         1 QWP      -0.097400
     14 CAN        -57.8450    47.0840   -39.8380 c6         1 QWP       0.099100
     15 OAO        -56.6990    46.8810   -40.6190 oh         1 QWP      -0.574800
     16 CAP        -58.8950    46.0360   -40.1980 c6         1 QWP       0.169100
     17 CAQ        -59.2490    46.0190   -41.6700 c3         1 QWP      -0.087100
     18 OAR        -58.4400    44.7390   -39.8330 os         1 QWP      -0.451600
     19 CAS        -58.2460    44.5870   -38.4390 c6         1 QWP       0.357900
     20 OAT        -57.8350    43.2930   -38.1980 os         1 QWP      -0.396600
     21 CAU        -58.8260    42.2760   -38.0940 c6         1 QWP       0.119100
     22 CAV        -58.3390    41.2950   -37.0360 c6         1 QWP      -0.105400
     23 CAW        -59.0630    41.5660   -39.4310 c6         1 QWP       0.101100
     24 OAX        -59.7350    42.3660   -40.3650 oh         1 QWP      -0.616800
     25 CAY        -59.9310    40.3210   -39.2130 c6         1 QWP       0.163100
     26 CAZ        -60.1050    39.5040   -40.4760 c3         1 QWP      -0.080100
     27 OBA        -59.3470    39.4840   -38.2350 os         1 QWP      -0.448600
     28 CBB        -59.2640    40.0960   -36.9740 c6         1 QWP       0.354900
     29 OBC        -58.7370    39.1710   -36.0830 os         1 QWP      -0.381600
     30 CBD        -59.6110    38.1920   -35.5920 c6         1 QWP       0.078100
     31 CBE        -58.8490    36.8960   -35.3100 c6         1 QWP      -0.047700
     32 CBF        -59.8610    35.8690   -34.8060 c6         1 QWP      -0.043100
     33 CBG        -58.0630    36.4030   -36.5360 c3         1 QWP       0.060100
     34 OBH        -58.9520    36.0570   -37.5510 os         1 QWP      -0.407600
     35 CBI        -58.4210    36.1820   -38.8560 c3         1 QWP       0.114700
     36 CBJ        -57.1700    35.2440   -36.0810 c          1 QWP       0.548100
     37 OBK        -56.1720    35.4890   -35.4420 o          1 QWP      -0.510100
     38 CBL        -57.5680    33.8050   -36.4130 c3         1 QWP       0.014100
     39 OBM        -56.8810    33.5090   -37.6110 oh         1 QWP      -0.573800
     40 CBN        -57.2270    32.8230   -35.2830 c3         1 QWP       0.141100
     41 CBO        -57.7620    31.4380   -35.6020 c3         1 QWP      -0.094100
     42 OBP        -55.8440    32.7050   -35.0530 oh         1 QWP      -0.587800
     43 CBQ        -60.2760    38.6910   -34.3100 c          1 QWP       0.583700
     44 OBR        -60.3760    39.9070   -34.1290 o          1 QWP      -0.586100
     45 CBS        -60.7750    37.7250   -33.3580 ca         1 QWP      -0.364600
     46 CBT        -61.4330    38.1760   -32.1970 ca         1 QWP       0.310100
     47 OBU        -61.6080    39.4640   -31.9940 oh         1 QWP      -0.484100
     48 CBV        -60.5620    36.3330   -33.5650 ca         1 QWP       0.030700
     49 CBW        -60.9930    35.4410   -32.6360 ca         1 QWP      -0.206000
     50 CBX        -61.6690    35.8620   -31.4610 ca         1 QWP       0.099000
     51 CBY        -62.0940    34.9010   -30.5330 ca         1 QWP      -0.271000
     52 CBZ        -61.9090    37.2420   -31.2300 ca         1 QWP      -0.159000
     53 CCA        -62.6020    37.6010   -30.0350 ca         1 QWP       0.232100
     54 OCB        -62.8420    38.9000   -29.8190 oh         1 QWP      -0.467100
     55 CCC        -63.0120    36.6510   -29.1150 ca         1 QWP      -0.240300
     56 CCD        -63.7240    37.0840   -27.8630 c3         1 QWP      -0.040800
     57 CCE        -62.7400    35.2900   -29.3820 ca         1 QWP       0.233100
     58 OCF        -63.1600    34.4270   -28.4330 os         1 QWP      -0.310900
     59 CCG        -62.7360    33.0970   -28.4500 c6         1 QWP       0.355900
     60 CCH        -62.9580    32.5130   -27.0700 c6         1 QWP      -0.109400
     61 OCI        -63.5010    32.4200   -29.4020 os         1 QWP      -0.428600
     62 CCJ        -63.1340    31.0570   -29.5330 c6         1 QWP       0.162100
     63 CCK        -63.9270    30.4800   -30.6860 c3         1 QWP      -0.081100
     64 CCL        -63.3780    30.3170   -28.2120 c6         1 QWP       0.098100
     65 OCM        -62.9540    28.9950   -28.4100 oh         1 QWP      -0.612800
     66 CCN        -62.6260    31.0270   -27.0800 c6         1 QWP       0.120100
     67 OCO        -62.9710    30.5330   -25.7930 os         1 QWP      -0.397600
     68 CCP        -62.2630    29.4630   -25.2880 c6         1 QWP       0.352900
     69 CCQ        -62.2870    29.5150   -23.7720 c6         1 QWP      -0.105400
     70 OCR        -62.8890    28.2730   -25.7410 os         1 QWP      -0.462600
     71 CCS        -62.2390    27.0830   -25.3110 c6         1 QWP       0.135100
     72 CCT        -62.9390    25.9130   -25.9700 c3         1 QWP      -0.095100
     73 CCU        -62.2780    27.0230   -23.7800 c6         1 QWP       0.074100
     74 OCV        -61.5690    25.9100   -23.2870 oh         1 QWP      -0.602800
     75 CCW        -61.6270    28.2720   -23.1990 c6         1 QWP       0.157100
     76 OCX        -61.7330    28.3190   -21.7980 oh         1 QWP      -0.589800
     77 H1         -56.2580    49.7020   -36.0410 hc         1 QWP       0.067700
     78 H2         -54.8090    49.5600   -37.0310 hc         1 QWP       0.067700
     79 H3         -55.2950    51.9230   -35.2720 hc         1 QWP       0.046033
     80 H4         -53.9440    51.8280   -36.3970 hc         1 QWP       0.046033
     81 H5         -55.0250    53.2270   -36.4240 hc         1 QWP       0.046033
     82 H6         -57.5360    51.7370   -36.3150 ho         1 QWP       0.401000
     83 H7         -54.3680    51.3660   -38.8050 h1         1 QWP       0.044700
     84 H8         -54.8340    53.5340   -38.7730 ho         1 QWP       0.405000
     85 H9         -57.2670    51.1280   -39.7140 h1         1 QWP       0.061700
     86 H10        -55.8050    51.9720   -41.5180 hc         1 QWP       0.049033
     87 H11        -54.6340    50.6860   -41.2170 hc         1 QWP       0.049033
     88 H12        -56.2490    50.2970   -41.8260 hc         1 QWP       0.049033
     89 H13        -57.6870    49.4550   -38.0620 h2         1 QWP       0.033700
     90 H14        -58.4700    47.2600   -37.8040 h1         1 QWP       0.030700
     91 H15        -57.0700    45.4640   -36.8770 hc         1 QWP       0.081700
     92 H16        -56.2200    45.2830   -38.4180 hc         1 QWP       0.081700
     93 H17        -58.3060    48.0610   -40.0440 h1         1 QWP       0.036700
     94 H18        -56.1430    47.6620   -40.5100 ho         1 QWP       0.428000
     95 H19        -59.8020    46.2790   -39.6230 h1         1 QWP       0.028700
     96 H20        -59.5930    47.0060   -41.9790 hc         1 QWP       0.051700
     97 H21        -58.3950    45.7460   -42.2880 hc         1 QWP       0.051700
     98 H22        -60.0550    45.3110   -41.8620 hc         1 QWP       0.051700
     99 H23        -59.2010    44.8000   -37.9250 h2         1 QWP       0.017700
    100 H24        -59.7790    42.7200   -37.7680 h1         1 QWP       0.043700
    101 H25        -57.3300    40.9520   -37.2840 hc         1 QWP       0.078700
    102 H26        -58.3010    41.7890   -36.0630 hc         1 QWP       0.078700
    103 H27        -58.0810    41.2340   -39.8100 h1         1 QWP       0.059700
    104 H28        -59.2940    43.2300   -40.4060 ho         1 QWP       0.441000
    105 H29        -60.9210    40.6590   -38.8640 h1         1 QWP       0.038700
    106 H30        -60.7090    38.6180   -40.2770 hc         1 QWP       0.047367
    107 H31        -60.6100    40.0850   -41.2450 hc         1 QWP       0.047367
    108 H32        -59.1400    39.1810   -40.8710 hc         1 QWP       0.047367
    109 H33        -60.2730    40.4190   -36.6680 h2         1 QWP       0.035700
    110 H34        -60.4160    37.9720   -36.3090 h1         1 QWP       0.085700
    111 H35        -58.1170    37.0910   -34.5190 hc         1 QWP       0.085700
    112 H36        -60.6030    35.6770   -35.5870 hc         1 QWP       0.064200
    113 H37        -59.3850    34.9120   -34.5880 hc         1 QWP       0.064200
    114 H38        -57.3900    37.2120   -36.8510 h1         1 QWP       0.094700
    115 H39        -59.2180    35.9320   -39.5550 h1         1 QWP       0.042367
    116 H40        -58.0920    37.2050   -39.0550 h1         1 QWP       0.042367
    117 H41        -57.5840    35.5030   -39.0280 h1         1 QWP       0.042367
    118 H42        -58.6530    33.7690   -36.5600 h1         1 QWP       0.058700
    119 H43        -57.4350    32.9380   -38.1530 ho         1 QWP       0.410000
    120 H44        -57.7480    33.1840   -34.3820 h1         1 QWP       0.025700
    121 H45        -57.5670    30.7530   -34.7760 hc         1 QWP       0.044033
    122 H46        -58.8400    31.4700   -35.7580 hc         1 QWP       0.044033
    123 H47        -57.2980    31.0250   -36.4990 hc         1 QWP       0.044033
    124 H48        -55.5000    33.5880   -34.8770 ho         1 QWP       0.428000
    125 H49        -61.1820    39.9420   -32.7560 ho         1 QWP       0.487000
    126 H50        -60.8170    34.3810   -32.7770 ha         1 QWP       0.135000
    127 H51        -61.9130    33.8610   -30.7630 ha         1 QWP       0.150000
    128 H52        -63.3210    39.0260   -28.9910 ho         1 QWP       0.435000
    129 H53        -64.6650    37.5950   -28.0860 hc         1 QWP       0.045367
    130 H54        -63.9740    36.2430   -27.2240 hc         1 QWP       0.045367
    131 H55        -63.1130    37.7610   -27.2610 hc         1 QWP       0.045367
    132 H56        -61.6660    33.0420   -28.7140 h2         1 QWP       0.034700
    133 H57        -62.3310    33.0280   -26.3400 hc         1 QWP       0.079200
    134 H58        -64.0040    32.6560   -26.7820 hc         1 QWP       0.079200
    135 H59        -62.0590    30.9890   -29.7670 h1         1 QWP       0.039700
    136 H60        -63.6500    29.4430   -30.8620 hc         1 QWP       0.051033
    137 H61        -64.9990    30.5180   -30.4840 hc         1 QWP       0.051033
    138 H62        -63.7290    31.0370   -31.6020 hc         1 QWP       0.051033
    139 H63        -64.4560    30.3720   -27.9860 h1         1 QWP       0.061700
    140 H64        -63.0460    28.5170   -27.5710 ho         1 QWP       0.438000
    141 H65        -61.5470    30.8940   -27.2500 h1         1 QWP       0.043700
    142 H66        -61.2190    29.4750   -25.6470 h2         1 QWP       0.027700
    143 H67        -61.7620    30.4100   -23.4330 hc         1 QWP       0.079200
    144 H68        -63.3250    29.5810   -23.4300 hc         1 QWP       0.079200
    145 H69        -61.1860    27.1020   -25.6310 h1         1 QWP       0.048700
    146 H70        -62.4430    24.9780   -25.7150 hc         1 QWP       0.050033
    147 H71        -63.9810    25.8450   -25.6520 hc         1 QWP       0.050033
    148 H72        -62.9140    26.0070   -27.0560 hc         1 QWP       0.050033
    149 H73        -63.3320    26.9980   -23.4620 h1         1 QWP       0.059700
    150 H74        -62.1440    25.1390   -23.2920 ho         1 QWP       0.415000
    151 H75        -60.5680    28.2660   -23.5090 h1         1 QWP       0.038700
    152 H76        -61.3430    27.5110   -21.4460 ho         1 QWP       0.422000
@<TRIPOS>BOND
     1     1     2 1   
     2     1    10 1   
     3     1    77 1   
     4     1    78 1   
     5     2     3 1   
     6     2     4 1   
     7     2     5 1   
     8     3    79 1   
     9     3    80 1   
    10     3    81 1   
    11     4    82 1   
    12     5     6 1   
    13     5     7 1   
    14     5    83 1   
    15     6    84 1   
    16     7     8 1   
    17     7     9 1   
    18     7    85 1   
    19     8    86 1   
    20     8    87 1   
    21     8    88 1   
    22     9    10 1   
    23    10    11 1   
    24    10    89 1   
    25    11    12 1   
    26    12    13 1   
    27    12    14 1   
    28    12    90 1   
    29    13    19 1   
    30    13    91 1   
    31    13    92 1   
    32    14    15 1   
    33    14    16 1   
    34    14    93 1   
    35    15    94 1   
    36    16    17 1   
    37    16    18 1   
    38    16    95 1   
    39    17    96 1   
    40    17    97 1   
    41    17    98 1   
    42    18    19 1   
    43    19    20 1   
    44    19    99 1   
    45    20    21 1   
    46    21    22 1   
    47    21    23 1   
    48    21   100 1   
    49    22    28 1   
    50    22   101 1   
    51    22   102 1   
    52    23    24 1   
    53    23    25 1   
    54    23   103 1   
    55    24   104 1   
    56    25    26 1   
    57    25    27 1   
    58    25   105 1   
    59    26   106 1   
    60    26   107 1   
    61    26   108 1   
    62    27    28 1   
    63    28    29 1   
    64    28   109 1   
    65    29    30 1   
    66    30    31 1   
    67    30    43 1   
    68    30   110 1   
    69    31    32 1   
    70    31    33 1   
    71    31   111 1   
    72    32    48 1   
    73    32   112 1   
    74    32   113 1   
    75    33    34 1   
    76    33    36 1   
    77    33   114 1   
    78    34    35 1   
    79    35   115 1   
    80    35   116 1   
    81    35   117 1   
    82    36    37 2   
    83    36    38 1   
    84    38    39 1   
    85    38    40 1   
    86    38   118 1   
    87    39   119 1   
    88    40    41 1   
    89    40    42 1   
    90    40   120 1   
    91    41   121 1   
    92    41   122 1   
    93    41   123 1   
    94    42   124 1   
    95    43    44 2   
    96    43    45 1   
    97    45    46 ar  
    98    45    48 ar  
    99    46    47 1   
   100    46    52 ar  
   101    47   125 1   
   102    48    49 ar  
   103    49    50 ar  
   104    49   126 1   
   105    50    51 ar  
   106    50    52 ar  
   107    51    57 ar  
   108    51   127 1   
   109    52    53 ar  
   110    53    54 1   
   111    53    55 ar  
   112    54   128 1   
   113    55    56 1   
   114    55    57 ar  
   115    56   129 1   
   116    56   130 1   
   117    56   131 1   
   118    57    58 1   
   119    58    59 1   
   120    59    60 1   
   121    59    61 1   
   122    59   132 1   
   123    60    66 1   
   124    60   133 1   
   125    60   134 1   
   126    61    62 1   
   127    62    63 1   
   128    62    64 1   
   129    62   135 1   
   130    63   136 1   
   131    63   137 1   
   132    63   138 1   
   133    64    65 1   
   134    64    66 1   
   135    64   139 1   
   136    65   140 1   
   137    66    67 1   
   138    66   141 1   
   139    67    68 1   
   140    68    69 1   
   141    68    70 1   
   142    68   142 1   
   143    69    75 1   
   144    69   143 1   
   145    69   144 1   
   146    70    71 1   
   147    71    72 1   
   148    71    73 1   
   149    71   145 1   
   150    72   146 1   
   151    72   147 1   
   152    72   148 1   
   153    73    74 1   
   154    73    75 1   
   155    73   149 1   
   156    74   150 1   
   157    75    76 1   
   158    75   151 1   
   159    76   152 1   
@<TRIPOS>SUBSTRUCTURE
     1 QWP         1 TEMP              0 ****  ****    0 ROOT
