@<TRIPOS>MOLECULE
QWP
  152   159     1     0     0
SMALL
No Charge or Current Charge


@<TRIPOS>ATOM
      1 CAA        -55.4950    50.3570   -38.1640 c6         1 QWP      -0.136400
      2 CAB        -55.6440    51.8600   -38.5270 c6         1 QWP       0.150000
      3 CAC        -54.4540    52.6680   -37.9380 c3         1 QWP      -0.123100
      4 OAD        -56.8400    52.3770   -37.9260 oh         1 QWP      -0.646000
      5 CAE        -55.7370    52.0290   -40.0850 c6         1 QWP       0.157300
      6 OAF        -56.0700    53.3940   -40.4000 oh         1 QWP      -0.698000
      7 CAG        -56.7930    51.0380   -40.6810 c6         1 QWP       0.190300
      8 CAH        -56.8050    51.0240   -42.2290 c3         1 QWP      -0.088100
      9 OAI        -56.5010    49.6880   -40.2650 os         1 QWP      -0.512000
     10 CAJ        -56.5830    49.5010   -38.8410 c6         1 QWP       0.400300
     11 OAK        -56.3380    48.1140   -38.5770 os         1 QWP      -0.440000
     12 CAL        -57.4890    47.2320   -38.6090 c6         1 QWP       0.146300
     13 CAM        -56.9960    45.8090   -38.2390 c6         1 QWP      -0.097400
     14 CAN        -58.2030    47.2250   -40.0050 c6         1 QWP       0.122300
     15 OAO        -57.2170    47.1610   -41.0540 oh         1 QWP      -0.697000
     16 CAP        -59.2480    46.0600   -40.0530 c6         1 QWP       0.192300
     17 CAQ        -59.9190    45.8900   -41.4380 c3         1 QWP      -0.087100
     18 OAR        -58.6310    44.7980   -39.7200 os         1 QWP      -0.498000
     19 CAS        -58.1170    44.7610   -38.3800 c6         1 QWP       0.404300
     20 OAT        -57.5790    43.4540   -38.1250 os         1 QWP      -0.443000
     21 CAU        -58.5200    42.4010   -37.8020 c6         1 QWP       0.142300
     22 CAV        -57.8600    41.4340   -36.7930 c6         1 QWP      -0.105400
     23 CAW        -59.0120    41.6120   -39.0640 c6         1 QWP       0.124300
     24 OAX        -59.7160    42.4610   -39.9900 oh         1 QWP      -0.739000
     25 CAY        -59.8970    40.4060   -38.6090 c6         1 QWP       0.186300
     26 CAZ        -60.2930    39.4660   -39.7750 c3         1 QWP      -0.080100
     27 OBA        -59.1750    39.5930   -37.6620 os         1 QWP      -0.495000
     28 CBB        -58.8190    40.2790   -36.4510 c6         1 QWP       0.401300
     29 OBC        -58.1540    39.3430   -35.5890 os         1 QWP      -0.428000
     30 CBD        -59.0150    38.3560   -34.9520 c6         1 QWP       0.101300
     31 CBE        -58.2570    37.0340   -34.6840 c6         1 QWP      -0.047700
     32 CBF        -59.2230    36.0030   -34.0460 c6         1 QWP      -0.043100
     33 CBG        -57.5500    36.5040   -35.9820 c3         1 QWP       0.083300
     34 OBH        -58.5790    36.1320   -36.9370 os         1 QWP      -0.454000
     35 CBI        -58.1680    36.1210   -38.3170 c3         1 QWP       0.137900
     36 CBJ        -56.5270    35.3610   -35.7160 c          1 QWP       0.548100
     37 OBK        -55.3560    35.6170   -35.4460 o          1 QWP      -0.510100
     38 CBL        -57.0360    33.8860   -35.7920 c3         1 QWP       0.037300
     39 OBM        -56.5910    33.2080   -36.9950 oh         1 QWP      -0.636000
     40 CBN        -56.5790    33.0650   -34.5490 c3         1 QWP       0.164300
     41 CBO        -57.3590    31.7460   -34.3770 c3         1 QWP      -0.094100
     42 OBP        -55.1790    32.7670   -34.6470 oh         1 QWP      -0.650000
     43 CBQ        -59.7430    38.9050   -33.6890 c          1 QWP       0.583700
     44 OBR        -59.8870    40.1130   -33.5140 o          1 QWP      -0.586100
     45 CBS        -60.2530    37.9150   -32.6600 ca         1 QWP      -0.364600
     46 CBT        -60.9810    38.3380   -31.5150 ca         1 QWP       0.310100
     47 OBU        -61.2050    39.6720   -31.3680 oh         1 QWP      -0.523100
     48 CBV        -59.9950    36.5400   -32.8400 ca         1 QWP       0.030700
     49 CBW        -60.4710    35.6180   -31.9040 ca         1 QWP      -0.188000
     50 CBX        -61.1920    36.0310   -30.7780 ca         1 QWP       0.099000
     51 CBY        -61.6330    35.0480   -29.8840 ca         1 QWP      -0.253000
     52 CBZ        -61.4630    37.3970   -30.5540 ca         1 QWP      -0.159000
     53 CCA        -62.2010    37.7420   -29.3820 ca         1 QWP       0.232100
     54 OCB        -62.5060    39.0400   -29.0820 oh         1 QWP      -0.506100
     55 CCC        -62.6490    36.7490   -28.4770 ca         1 QWP      -0.240300
     56 CCD        -63.4440    37.1500   -27.2190 c3         1 QWP      -0.040800
     57 CCE        -62.3650    35.3920   -28.7360 ca         1 QWP       0.233100
     58 OCF        -62.8040    34.4390   -27.8330 os         1 QWP      -0.334100
     59 CCG        -62.6430    33.0330   -28.0720 c6         1 QWP       0.402300
     60 CCH        -63.0760    32.2450   -26.8200 c6         1 QWP      -0.109400
     61 OCI        -63.4770    32.6440   -29.1790 os         1 QWP      -0.475000
     62 CCJ        -63.3430    31.2560   -29.5510 c6         1 QWP       0.185300
     63 CCK        -64.2010    31.0600   -30.8260 c3         1 QWP      -0.081100
     64 CCL        -63.7840    30.3390   -28.3650 c6         1 QWP       0.121300
     65 OCM        -63.6350    28.9460   -28.6970 oh         1 QWP      -0.735000
     66 CCN        -62.9740    30.7240   -27.0780 c6         1 QWP       0.143300
     67 OCO        -63.4230    30.0230   -25.8920 os         1 QWP      -0.444000
     68 CCP        -62.8200    28.7490   -25.6120 c6         1 QWP       0.399300
     69 CCQ        -63.0200    28.4150   -24.1200 c6         1 QWP      -0.105400
     70 OCR        -63.4710    27.7440   -26.4120 os         1 QWP      -0.509000
     71 CCS        -62.9370    26.4120   -26.2420 c6         1 QWP       0.158300
     72 CCT        -63.6720    25.5150   -27.2680 c3         1 QWP      -0.095100
     73 CCU        -63.1370    25.9510   -24.7630 c6         1 QWP       0.097300
     74 OCV        -62.5810    24.6410   -24.5110 oh         1 QWP      -0.725000
     75 CCW        -62.4780    27.0010   -23.8210 c6         1 QWP       0.180300
     76 OCX        -62.7160    26.6460   -22.4550 oh         1 QWP      -0.652000
     77 H1         -55.5440    50.2170   -37.0760 hc         1 QWP       0.067700
     78 H2         -54.5080    49.9930   -38.4810 hc         1 QWP       0.067700
     79 H3         -54.3690    52.5270   -36.8530 hc         1 QWP       0.046033
     80 H4         -53.5030    52.3540   -38.3840 hc         1 QWP       0.046033
     81 H5         -54.5610    53.7450   -38.1200 hc         1 QWP       0.046033
     82 H6         -56.6930    52.3860   -36.9540 ho         1 QWP       0.440000
     83 H7         -54.7580    51.7760   -40.5200 h1         1 QWP       0.044700
     84 H8         -56.6170    53.6820   -39.6300 ho         1 QWP       0.504000
     85 H9         -57.7990    51.3080   -40.3260 h1         1 QWP       0.061700
     86 H10        -57.0800    52.0060   -42.6320 hc         1 QWP       0.049033
     87 H11        -55.8210    50.7590   -42.6320 hc         1 QWP       0.049033
     88 H12        -57.5330    50.2970   -42.6090 hc         1 QWP       0.049033
     89 H13        -57.5780    49.7900   -38.4700 h2         1 QWP       0.033700
     90 H14        -58.2070    47.5650   -37.8450 h1         1 QWP       0.030700
     91 H15        -56.6180    45.8030   -37.2090 hc         1 QWP       0.081700
     92 H16        -56.1570    45.5250   -38.8870 hc         1 QWP       0.081700
     93 H17        -58.7640    48.1650   -40.1020 h1         1 QWP       0.036700
     94 H18        -56.6670    47.9730   -40.8950 ho         1 QWP       0.527000
     95 H19        -60.0410    46.2630   -39.3180 h1         1 QWP       0.028700
     96 H20        -60.4020    46.8210   -41.7560 hc         1 QWP       0.051700
     97 H21        -59.1890    45.6100   -42.2070 hc         1 QWP       0.051700
     98 H22        -60.6890    45.1100   -41.4070 hc         1 QWP       0.051700
     99 H23        -58.9200    44.9830   -37.6610 h2         1 QWP       0.017700
    100 H24        -59.3930    42.8490   -37.3040 h1         1 QWP       0.043700
    101 H25        -56.9280    41.0290   -37.2100 hc         1 QWP       0.078700
    102 H26        -57.5960    41.9740   -35.8750 hc         1 QWP       0.078700
    103 H27        -58.1200    41.1990   -39.5590 h1         1 QWP       0.059700
    104 H28        -59.2410    43.3420   -39.9610 ho         1 QWP       0.540000
    105 H29        -60.8150    40.7770   -38.1290 h1         1 QWP       0.038700
    106 H30        -60.8720    38.6110   -39.4090 hc         1 QWP       0.047367
    107 H31        -60.9090    39.9900   -40.5150 hc         1 QWP       0.047367
    108 H32        -59.4060    39.0780   -40.2910 hc         1 QWP       0.047367
    109 H33        -59.7210    40.6760   -35.9630 h2         1 QWP       0.035700
    110 H34        -59.8290    38.1080   -35.6490 h1         1 QWP       0.085700
    111 H35        -57.4580    37.2510   -33.9610 hc         1 QWP       0.085700
    112 H36        -59.9520    35.6540   -34.7910 hc         1 QWP       0.064200
    113 H37        -58.6580    35.1150   -33.7370 hc         1 QWP       0.064200
    114 H38        -56.9510    37.3310   -36.3870 h1         1 QWP       0.094700
    115 H39        -59.0030    35.8160   -38.9610 h1         1 QWP       0.042367
    116 H40        -57.8440    37.1210   -38.6340 h1         1 QWP       0.042367
    117 H41        -57.3400    35.4200   -38.4810 h1         1 QWP       0.042367
    118 H42        -58.1320    33.9270   -35.7810 h1         1 QWP       0.058700
    119 H43        -55.7730    32.7200   -36.7390 ho         1 QWP       0.449000
    120 H44        -56.7630    33.6710   -33.6510 h1         1 QWP       0.025700
    121 H45        -57.0280    31.2200   -33.4740 hc         1 QWP       0.044033
    122 H46        -58.4330    31.9440   -34.2790 hc         1 QWP       0.044033
    123 H47        -57.2080    31.0810   -35.2360 hc         1 QWP       0.044033
    124 H48        -54.6950    33.6220   -34.5700 ho         1 QWP       0.467000
    125 H49        -60.7490    40.1030   -32.1360 ho         1 QWP       0.526000
    126 H50        -60.2780    34.5580   -32.0570 ha         1 QWP       0.117000
    127 H51        -61.3970    34.0120   -30.1030 ha         1 QWP       0.132000
    128 H52        -63.0080    39.0440   -28.2440 ho         1 QWP       0.474000
    129 H53        -64.3690    37.6760   -27.4870 hc         1 QWP       0.045367
    130 H54        -63.7440    36.2970   -26.6010 hc         1 QWP       0.045367
    131 H55        -62.8530    37.8090   -26.5710 hc         1 QWP       0.045367
    132 H56        -61.5880    32.8130   -28.2930 h2         1 QWP       0.034700
    133 H57        -62.4370    32.5230   -25.9720 hc         1 QWP       0.079200
    134 H58        -64.1050    32.5160   -26.5520 hc         1 QWP       0.079200
    135 H59        -62.2900    31.0590   -29.8040 h1         1 QWP       0.039700
    136 H60        -64.1010    30.0420   -31.2180 hc         1 QWP       0.051033
    137 H61        -65.2640    31.2380   -30.6210 hc         1 QWP       0.051033
    138 H62        -63.8890    31.7510   -31.6180 hc         1 QWP       0.051033
    139 H63        -64.8440    30.5510   -28.1590 h1         1 QWP       0.061700
    140 H64        -63.6580    28.4570   -27.8230 ho         1 QWP       0.537000
    141 H65        -61.9120    30.4890   -27.2460 h1         1 QWP       0.043700
    142 H66        -61.7440    28.7800   -25.8420 h2         1 QWP       0.027700
    143 H67        -62.4990    29.1570   -23.5020 hc         1 QWP       0.079200
    144 H68        -64.0870    28.4760   -23.8680 hc         1 QWP       0.079200
    145 H69        -61.8640    26.4250   -26.4890 h1         1 QWP       0.048700
    146 H70        -63.2730    24.4940   -27.2640 hc         1 QWP       0.050033
    147 H71        -64.7460    25.4600   -27.0530 hc         1 QWP       0.050033
    148 H72        -63.5520    25.9050   -28.2860 hc         1 QWP       0.050033
    149 H73        -64.2190    25.9430   -24.5580 h1         1 QWP       0.059700
    150 H74        -63.1370    23.9850   -24.9960 ho         1 QWP       0.514000
    151 H75        -61.3940    27.0020   -24.0150 h1         1 QWP       0.038700
    152 H76        -62.6090    25.6670   -22.4360 ho         1 QWP       0.461000
@<TRIPOS>BOND
     1     1     2 1   
     2     1    10 1   
     3     1    77 1   
     4     1    78 1   
     5     2     3 1   
     6     2     4 1   
     7     2     5 1   
     8     3    79 1   
     9     3    80 1   
    10     3    81 1   
    11     4    82 1   
    12     5     6 1   
    13     5     7 1   
    14     5    83 1   
    15     6    84 1   
    16     7     8 1   
    17     7     9 1   
    18     7    85 1   
    19     8    86 1   
    20     8    87 1   
    21     8    88 1   
    22     9    10 1   
    23    10    11 1   
    24    10    89 1   
    25    11    12 1   
    26    12    13 1   
    27    12    14 1   
    28    12    90 1   
    29    13    19 1   
    30    13    91 1   
    31    13    92 1   
    32    14    15 1   
    33    14    16 1   
    34    14    93 1   
    35    15    94 1   
    36    16    17 1   
    37    16    18 1   
    38    16    95 1   
    39    17    96 1   
    40    17    97 1   
    41    17    98 1   
    42    18    19 1   
    43    19    20 1   
    44    19    99 1   
    45    20    21 1   
    46    21    22 1   
    47    21    23 1   
    48    21   100 1   
    49    22    28 1   
    50    22   101 1   
    51    22   102 1   
    52    23    24 1   
    53    23    25 1   
    54    23   103 1   
    55    24   104 1   
    56    25    26 1   
    57    25    27 1   
    58    25   105 1   
    59    26   106 1   
    60    26   107 1   
    61    26   108 1   
    62    27    28 1   
    63    28    29 1   
    64    28   109 1   
    65    29    30 1   
    66    30    31 1   
    67    30    43 1   
    68    30   110 1   
    69    31    32 1   
    70    31    33 1   
    71    31   111 1   
    72    32    48 1   
    73    32   112 1   
    74    32   113 1   
    75    33    34 1   
    76    33    36 1   
    77    33   114 1   
    78    34    35 1   
    79    35   115 1   
    80    35   116 1   
    81    35   117 1   
    82    36    37 2   
    83    36    38 1   
    84    38    39 1   
    85    38    40 1   
    86    38   118 1   
    87    39   119 1   
    88    40    41 1   
    89    40    42 1   
    90    40   120 1   
    91    41   121 1   
    92    41   122 1   
    93    41   123 1   
    94    42   124 1   
    95    43    44 2   
    96    43    45 1   
    97    45    46 ar  
    98    45    48 ar  
    99    46    47 1   
   100    46    52 ar  
   101    47   125 1   
   102    48    49 ar  
   103    49    50 ar  
   104    49   126 1   
   105    50    51 ar  
   106    50    52 ar  
   107    51    57 ar  
   108    51   127 1   
   109    52    53 ar  
   110    53    54 1   
   111    53    55 ar  
   112    54   128 1   
   113    55    56 1   
   114    55    57 ar  
   115    56   129 1   
   116    56   130 1   
   117    56   131 1   
   118    57    58 1   
   119    58    59 1   
   120    59    60 1   
   121    59    61 1   
   122    59   132 1   
   123    60    66 1   
   124    60   133 1   
   125    60   134 1   
   126    61    62 1   
   127    62    63 1   
   128    62    64 1   
   129    62   135 1   
   130    63   136 1   
   131    63   137 1   
   132    63   138 1   
   133    64    65 1   
   134    64    66 1   
   135    64   139 1   
   136    65   140 1   
   137    66    67 1   
   138    66   141 1   
   139    67    68 1   
   140    68    69 1   
   141    68    70 1   
   142    68   142 1   
   143    69    75 1   
   144    69   143 1   
   145    69   144 1   
   146    70    71 1   
   147    71    72 1   
   148    71    73 1   
   149    71   145 1   
   150    72   146 1   
   151    72   147 1   
   152    72   148 1   
   153    73    74 1   
   154    73    75 1   
   155    73   149 1   
   156    74   150 1   
   157    75    76 1   
   158    75   151 1   
   159    76   152 1   
@<TRIPOS>SUBSTRUCTURE
     1 QWP         1 TEMP              0 ****  ****    0 ROOT
