@<TRIPOS>MOLECULE
QWQ
   61    64     1     0     0
SMALL
abcg2


@<TRIPOS>ATOM
      1 C10          8.2700   -26.9240     8.1450 cp         1 QWQ      -0.092000
      2 C13          8.1980   -25.1100     4.8330 ca         1 QWQ      -0.098000
      3 C15          9.5420   -25.3290     2.7190 c3         1 QWQ       0.215100
      4 C17          8.6220   -24.8400     0.5300 c5         1 QWQ       0.157300
      5 C20          7.9240   -26.7550     1.5950 c5         1 QWQ       0.157300
      6 C21          9.9050   -26.7820     4.7510 ca         1 QWQ      -0.098000
      7 C22          9.6020   -27.1570     6.0540 ca         1 QWQ      -0.101500
      8 C24          8.8520   -24.6510     9.0880 c3         1 QWQ      -0.057800
      9 C26          7.3220   -23.8810    13.0340 ca         1 QWQ       0.157100
     10 C28          5.7450   -22.3090    12.2260 c3         1 QWQ       0.145400
     11 C01         10.5070   -26.8920    14.9600 c3         1 QWQ       0.145400
     12 C03          8.9190   -25.4400    13.9670 ca         1 QWQ       0.157100
     13 C04          8.8800   -26.1810    12.7870 ca         1 QWQ      -0.218500
     14 C05          8.0670   -25.7690    11.7380 cp         1 QWQ       0.036000
     15 C06          8.0190   -26.5770    10.4990 cp         1 QWQ      -0.100000
     16 C07          7.6460   -27.9150    10.5900 ca         1 QWQ       0.346900
     17 C09          7.8830   -28.2430     8.3660 ca         1 QWQ       0.346900
     18 C11          8.5990   -26.5050     6.7650 cp         1 QWQ      -0.038000
     19 C12          7.8980   -25.4760     6.1340 ca         1 QWQ      -0.101500
     20 C14          9.2120   -25.7530     4.1250 ca         1 QWQ      -0.079300
     21 C18          7.4000   -25.2930    -0.2710 c5         1 QWQ      -0.078900
     22 C19          6.9360   -26.5830     0.4400 c5         1 QWQ      -0.078900
     23 C23          8.3570   -26.0580     9.2420 ca         1 QWQ      -0.006300
     24 C25          7.2860   -24.6240    11.8570 ca         1 QWQ      -0.218500
     25 C29          8.1470   -24.2820    14.0890 ca         1 QWQ       0.026100
     26 C31          7.2790   -23.9240    16.2270 c3         1 QWQ       0.147900
     27 N08          7.5800   -28.7390     9.5550 nb         1 QWQ      -0.666000
     28 N16          8.3940   -25.4050     1.8490 n3         1 QWQ      -0.717600
     29 O27          6.6080   -22.7650    13.2500 os         1 QWQ      -0.323100
     30 O30          8.2070   -23.5350    15.2220 os         1 QWQ      -0.328100
     31 H131         7.6350   -24.3170     4.3570 ha         1 QWQ       0.119000
     32 H152        10.3860   -25.9340     2.3420 h1         1 QWQ       0.037700
     33 H151         9.8900   -24.2910     2.7310 h1         1 QWQ       0.037700
     34 H171         9.5440   -25.2370     0.0720 h1         1 QWQ       0.036450
     35 H172         8.7280   -23.7550     0.5850 h1         1 QWQ       0.036450
     36 H201         7.4720   -27.1940     2.4860 h1         1 QWQ       0.036450
     37 H202         8.7540   -27.4160     1.2910 h1         1 QWQ       0.036450
     38 H211        10.6920   -27.3000     4.2170 ha         1 QWQ       0.119000
     39 H221        10.1610   -27.9570     6.5230 ha         1 QWQ       0.115500
     40 H242         8.0320   -23.9480     8.9260 hc         1 QWQ       0.052700
     41 H243         9.3780   -24.3200     9.9820 hc         1 QWQ       0.052700
     42 H241         9.5270   -24.5610     8.2390 hc         1 QWQ       0.052700
     43 H283         5.2730   -21.4050    12.6020 h1         1 QWQ       0.042533
     44 H282         6.2880   -22.0660    11.3100 h1         1 QWQ       0.042533
     45 H281         4.9670   -23.0400    11.9920 h1         1 QWQ       0.042533
     46 H013        11.0400   -26.9450    15.9050 h1         1 QWQ       0.042533
     47 H012         9.9270   -27.8100    14.8310 h1         1 QWQ       0.042533
     48 H011        11.2340   -26.8170    14.1480 h1         1 QWQ       0.042533
     49 H041         9.4900   -27.0660    12.6680 ha         1 QWQ       0.124500
     50 H071         7.3850   -28.3290    11.5580 h4         1 QWQ       0.022100
     51 H091         7.8130   -28.9240     7.5240 h4         1 QWQ       0.023100
     52 H121         7.1030   -24.9650     6.6630 ha         1 QWQ       0.115500
     53 H181         6.6180   -24.5340    -0.2430 hc         1 QWQ       0.046700
     54 H182         7.6510   -25.4590    -1.3180 hc         1 QWQ       0.046700
     55 H192         5.9180   -26.4720     0.8160 hc         1 QWQ       0.046700
     56 H191         6.9420   -27.4500    -0.2180 hc         1 QWQ       0.046700
     57 H251         6.6460   -24.3310    11.0360 ha         1 QWQ       0.124500
     58 H311         7.3740   -23.2120    17.0450 h1         1 QWQ       0.033367
     59 H312         6.2500   -23.8980    15.8600 h1         1 QWQ       0.033367
     60 H313         7.4900   -24.9250    16.6090 h1         1 QWQ       0.033367
     61 O02          9.6770   -25.7480    15.0320 os         1 QWQ      -0.323100
@<TRIPOS>BOND
     1     1    17 ar  
     2     1    18 1   
     3     1    23 ar  
     4     2    19 ar  
     5     2    20 ar  
     6     2    31 1   
     7     3    20 1   
     8     3    28 1   
     9     3    32 1   
    10     3    33 1   
    11     4    21 1   
    12     4    28 1   
    13     4    34 1   
    14     4    35 1   
    15     5    22 1   
    16     5    28 1   
    17     5    36 1   
    18     5    37 1   
    19     6     7 ar  
    20     6    20 ar  
    21     6    38 1   
    22     7    18 ar  
    23     7    39 1   
    24     8    23 1   
    25     8    40 1   
    26     8    41 1   
    27     8    42 1   
    28     9    24 ar  
    29     9    25 ar  
    30     9    29 1   
    31    10    29 1   
    32    10    43 1   
    33    10    44 1   
    34    10    45 1   
    35    11    46 1   
    36    11    47 1   
    37    11    48 1   
    38    11    61 1   
    39    12    13 ar  
    40    12    25 ar  
    41    12    61 1   
    42    13    14 ar  
    43    13    49 1   
    44    14    15 1   
    45    14    24 ar  
    46    15    16 ar  
    47    15    23 ar  
    48    16    27 ar  
    49    16    50 1   
    50    17    27 ar  
    51    17    51 1   
    52    18    19 ar  
    53    19    52 1   
    54    21    22 1   
    55    21    53 1   
    56    21    54 1   
    57    22    55 1   
    58    22    56 1   
    59    24    57 1   
    60    25    30 1   
    61    26    30 1   
    62    26    58 1   
    63    26    59 1   
    64    26    60 1   
@<TRIPOS>SUBSTRUCTURE
     1 QWQ         1 TEMP              0 ****  ****    0 ROOT
