@<TRIPOS>MOLECULE
QWQ
   61    64     1     0     0
SMALL
No Charge or Current Charge


@<TRIPOS>ATOM
      1 C10          8.2270   -26.9120     8.0970 cp         1 QWQ      -0.092000
      2 C13          8.2060   -24.8850     4.8490 ca         1 QWQ      -0.098000
      3 C15          9.5150   -25.0770     2.6770 c3         1 QWQ       0.215100
      4 C17          8.7060   -24.9060     0.3240 c5         1 QWQ       0.157300
      5 C20          8.1560   -26.8160     1.4980 c5         1 QWQ       0.157300
      6 C21          9.8430   -26.6670     4.6410 ca         1 QWQ      -0.098000
      7 C22          9.5320   -27.1020     5.9410 ca         1 QWQ      -0.101500
      8 C24          8.7420   -24.6200     9.1390 c3         1 QWQ      -0.057800
      9 C26          7.0540   -23.8970    13.0580 ca         1 QWQ       0.157100
     10 C28          5.5420   -22.2080    12.0540 c3         1 QWQ       0.145400
     11 C01         10.0740   -27.1710    15.1910 c3         1 QWQ       0.145400
     12 C03          8.5560   -25.5220    14.1160 ca         1 QWQ       0.157100
     13 C04          8.5760   -26.2510    12.9040 ca         1 QWQ      -0.218500
     14 C05          7.8600   -25.8240    11.7680 cp         1 QWQ       0.036000
     15 C06          7.8930   -26.6220    10.5070 cp         1 QWQ      -0.100000
     16 C07          7.5490   -27.9940    10.5520 ca         1 QWQ       0.346900
     17 C09          7.8650   -28.2680     8.2840 ca         1 QWQ       0.346900
     18 C11          8.5620   -26.4310     6.7220 cp         1 QWQ      -0.038000
     19 C12          7.8970   -25.3210     6.1480 ca         1 QWQ      -0.101500
     20 C14          9.1840   -25.5530     4.0880 ca         1 QWQ      -0.079300
     21 C18          7.4690   -25.4620    -0.4300 c5         1 QWQ      -0.078900
     22 C19          7.1110   -26.7670     0.3520 c5         1 QWQ      -0.078900
     23 C23          8.2610   -26.0700     9.2460 ca         1 QWQ      -0.006300
     24 C25          7.0930   -24.6470    11.8650 ca         1 QWQ      -0.218500
     25 C29          7.7840   -24.3210    14.1950 ca         1 QWQ       0.026100
     26 C31          8.3460   -23.7620    16.5840 c3         1 QWQ       0.147900
     27 N08          7.5340   -28.8090     9.4760 nb         1 QWQ      -0.666000
     28 N16          8.4500   -25.3810     1.6970 n3         1 QWQ      -0.717600
     29 O27          6.3060   -22.7340    13.1540 os         1 QWQ      -0.323100
     30 O30          7.6850   -23.5140    15.3300 os         1 QWQ      -0.328100
     31 H131         7.6810   -24.0310     4.4270 ha         1 QWQ       0.119000
     32 H152        10.4620   -25.5340     2.3560 h1         1 QWQ       0.037700
     33 H151         9.6840   -23.9920     2.7120 h1         1 QWQ       0.037700
     34 H171         9.6380   -25.3280    -0.0780 h1         1 QWQ       0.036450
     35 H172         8.7700   -23.8100     0.2610 h1         1 QWQ       0.036450
     36 H201         7.7540   -27.2960     2.4010 h1         1 QWQ       0.036450
     37 H202         9.0560   -27.3670     1.1900 h1         1 QWQ       0.036450
     38 H211        10.5960   -27.1980     4.0630 ha         1 QWQ       0.119000
     39 H221        10.0540   -27.9640     6.3520 ha         1 QWQ       0.115500
     40 H242         7.9050   -23.9400     8.9410 hc         1 QWQ       0.052700
     41 H243         9.2360   -24.2850    10.0580 hc         1 QWQ       0.052700
     42 H241         9.4760   -24.4930     8.3360 hc         1 QWQ       0.052700
     43 H283         5.0380   -21.2810    12.3510 h1         1 QWQ       0.042533
     44 H282         6.1930   -21.9820    11.1990 h1         1 QWQ       0.042533
     45 H281         4.7740   -22.9250    11.7340 h1         1 QWQ       0.042533
     46 H013        10.5520   -27.3230    16.1670 h1         1 QWQ       0.042533
     47 H012         9.4510   -28.0490    14.9780 h1         1 QWQ       0.042533
     48 H011        10.8650   -27.1040    14.4330 h1         1 QWQ       0.042533
     49 H041         9.1580   -27.1630    12.8140 ha         1 QWQ       0.124500
     50 H071         7.2670   -28.4550    11.4980 h4         1 QWQ       0.022100
     51 H091         7.8320   -28.9460     7.4320 h4         1 QWQ       0.023100
     52 H121         7.1280   -24.8010     6.7140 ha         1 QWQ       0.115500
     53 H181         6.6370   -24.7490    -0.3960 hc         1 QWQ       0.046700
     54 H182         7.6890   -25.6520    -1.4860 hc         1 QWQ       0.046700
     55 H192         6.0920   -26.7120     0.7530 hc         1 QWQ       0.046700
     56 H191         7.1620   -27.6610    -0.2790 hc         1 QWQ       0.046700
     57 H251         6.5240   -24.3380    10.9940 ha         1 QWQ       0.124500
     58 H311         8.0990   -22.9700    17.3020 h1         1 QWQ       0.033367
     59 H312         8.0240   -24.7180    17.0150 h1         1 QWQ       0.033367
     60 H313         9.4360   -23.7690    16.4570 h1         1 QWQ       0.033367
     61 O02          9.2790   -25.9720    15.2090 os         1 QWQ      -0.323100
@<TRIPOS>BOND
     1     1    17 ar  
     2     1    18 1   
     3     1    23 ar  
     4     2    19 ar  
     5     2    20 ar  
     6     2    31 1   
     7     3    20 1   
     8     3    28 1   
     9     3    32 1   
    10     3    33 1   
    11     4    21 1   
    12     4    28 1   
    13     4    34 1   
    14     4    35 1   
    15     5    22 1   
    16     5    28 1   
    17     5    36 1   
    18     5    37 1   
    19     6     7 ar  
    20     6    20 ar  
    21     6    38 1   
    22     7    18 ar  
    23     7    39 1   
    24     8    23 1   
    25     8    40 1   
    26     8    41 1   
    27     8    42 1   
    28     9    24 ar  
    29     9    25 ar  
    30     9    29 1   
    31    10    29 1   
    32    10    43 1   
    33    10    44 1   
    34    10    45 1   
    35    11    46 1   
    36    11    47 1   
    37    11    48 1   
    38    11    61 1   
    39    12    13 ar  
    40    12    25 ar  
    41    12    61 1   
    42    13    14 ar  
    43    13    49 1   
    44    14    15 1   
    45    14    24 ar  
    46    15    16 ar  
    47    15    23 ar  
    48    16    27 ar  
    49    16    50 1   
    50    17    27 ar  
    51    17    51 1   
    52    18    19 ar  
    53    19    52 1   
    54    21    22 1   
    55    21    53 1   
    56    21    54 1   
    57    22    55 1   
    58    22    56 1   
    59    24    57 1   
    60    25    30 1   
    61    26    30 1   
    62    26    58 1   
    63    26    59 1   
    64    26    60 1   
@<TRIPOS>SUBSTRUCTURE
     1 QWQ         1 TEMP              0 ****  ****    0 ROOT
