@<TRIPOS>MOLECULE
QWR
   61    66     1     0     0
SMALL
abcg2


@<TRIPOS>ATOM
      1 C21        -41.8290    38.5490    24.2930 ca         1 QWR      -0.123000
      2 C24        -40.6700    40.7080    24.1660 ca         1 QWR      -0.053000
      3 C28        -39.6130    39.2300    27.2590 cc         1 QWR      -0.153100
      4 C16        -42.6220    36.0760    25.8940 cc         1 QWR      -0.161000
      5 C30        -42.6590    31.9000    25.4110 cc         1 QWR      -0.238100
      6 C29        -40.3660    39.1610    26.0840 ca         1 QWR      -0.133000
      7 C20        -41.2640    38.2210    25.5090 ca         1 QWR      -0.024500
      8 C25        -40.0800    40.3950    25.4100 ca         1 QWR      -0.069000
      9 C22        -41.5260    39.7730    23.6520 ca         1 QWR       0.009100
     10 C17        -41.5930    36.9600    26.1640 cd         1 QWR       0.240500
     11 C13        -43.3390    33.0610    25.6930 cd         1 QWR       0.015400
     12 C11        -43.9290    32.5360    23.6920 cc         1 QWR      -0.071000
     13 C10        -44.4660    32.4110    22.3970 cc         1 QWR      -0.078000
     14 C9         -44.1000    31.3430    21.6240 cd         1 QWR      -0.096000
     15 C32        -42.6710    30.4880    23.3530 cc         1 QWR      -0.085000
     16 C8         -43.1880    30.3600    22.1000 cd         1 QWR      -0.115300
     17 C4         -43.4450    26.1440    23.2830 c6         1 QWR      -0.067400
     18 C34        -41.4330    25.7660    21.8700 c6         1 QWR      -0.067400
     19 C5         -43.7430    27.3870    22.4570 c6         1 QWR       0.166300
     20 C33        -41.7930    27.0200    21.0850 c6         1 QWR       0.166300
     21 C2         -42.6530    25.0750    22.5090 c6         1 QWR      -0.051000
     22 C1         -42.1720    23.9920    23.4790 c3         1 QWR      -0.083600
     23 C3         -43.5310    24.4170    21.4350 c3         1 QWR      -0.083600
     24 C7         -42.7820    29.2130    21.2050 c3         1 QWR       0.220100
     25 N27        -38.9770    40.4110    27.2150 na         1 QWR      -0.000500
     26 N18        -40.8720    36.4420    27.2020 nd         1 QWR      -0.361000
     27 N12        -44.1220    33.4500    24.6420 nd         1 QWR      -0.295600
     28 N19        -41.3950    35.3050    27.5660 nc         1 QWR      -0.213800
     29 N26        -39.2220    41.1520    26.1210 nc         1 QWR      -0.286400
     30 N31        -43.0340    31.5560    24.1310 na         1 QWR       0.126100
     31 N15        -42.4570    35.0770    26.7780 na         1 QWR       0.117800
     32 N6         -42.5140    27.9780    21.9250 n3         1 QWR      -0.730600
     33 BR23       -42.3760    40.1140    21.9660 br         1 QWR      -0.120100
     34 H1         -42.5080    37.8620    23.8070 ha         1 QWR       0.125000
     35 H2         -40.4530    41.6370    23.6590 ha         1 QWR       0.142000
     36 H3         -39.4960    38.5480    28.0800 h4         1 QWR       0.247000
     37 H4         -43.4220    36.0780    25.1760 h4         1 QWR       0.185000
     38 H5         -41.9680    31.3080    25.9850 h4         1 QWR       0.239000
     39 H6         -45.1620    33.1610    22.0470 ha         1 QWR       0.146000
     40 H7         -44.5140    31.2310    20.6300 ha         1 QWR       0.125000
     41 H8         -41.9840    29.7790    23.7890 h4         1 QWR       0.164000
     42 H9         -44.3840    25.7190    23.6490 hc         1 QWR       0.047450
     43 H10        -42.8630    26.4430    24.1610 hc         1 QWR       0.047450
     44 H11        -40.9110    25.0640    21.2140 hc         1 QWR       0.047450
     45 H12        -40.7350    26.0470    22.6650 hc         1 QWR       0.047450
     46 H13        -44.2420    28.1300    23.0810 h1         1 QWR       0.033700
     47 H14        -44.4380    27.1460    21.6340 h1         1 QWR       0.033700
     48 H15        -40.8820    27.5040    20.7250 h1         1 QWR       0.033700
     49 H16        -42.3880    26.7560    20.1940 h1         1 QWR       0.033700
     50 H17        -41.5460    24.4240    24.2640 hc         1 QWR       0.034200
     51 H18        -43.0200    23.4940    23.9570 hc         1 QWR       0.034200
     52 H19        -41.5860    23.2330    22.9550 hc         1 QWR       0.034200
     53 H20        -44.3870    23.9190    21.8980 hc         1 QWR       0.034200
     54 H21        -43.9170    25.1360    20.7120 hc         1 QWR       0.034200
     55 H22        -42.9600    23.6650    20.8840 hc         1 QWR       0.034200
     56 H23        -44.2690    34.1750    27.2550 h1         1 QWR       0.083700
     57 H24        -42.8070    33.3030    27.7520 h1         1 QWR       0.083700
     58 H25        -41.8710    29.4910    20.6660 h1         1 QWR       0.044700
     59 H26        -43.5640    29.0730    20.4390 h1         1 QWR       0.044700
     60 H27        -38.3460    40.7700    27.9170 hn         1 QWR       0.372000
     61 C14        -43.2690    33.8670    26.9460 c3         1 QWR       0.165800
@<TRIPOS>BOND
     1     1     7 ar  
     2     1     9 ar  
     3     1    34 1   
     4     2     8 ar  
     5     2     9 ar  
     6     2    35 1   
     7     3     6 2   
     8     3    25 1   
     9     3    36 1   
    10     4    10 2   
    11     4    31 1   
    12     4    37 1   
    13     5    11 2   
    14     5    30 1   
    15     5    38 1   
    16     6     7 ar  
    17     6     8 ar  
    18     7    10 1   
    19     8    29 2   
    20     9    33 1   
    21    10    26 1   
    22    11    27 1   
    23    11    61 1   
    24    12    13 1   
    25    12    27 2   
    26    12    30 1   
    27    13    14 2   
    28    13    39 1   
    29    14    16 1   
    30    14    40 1   
    31    15    16 2   
    32    15    30 1   
    33    15    41 1   
    34    16    24 1   
    35    17    19 1   
    36    17    21 1   
    37    17    42 1   
    38    17    43 1   
    39    18    20 1   
    40    18    21 1   
    41    18    44 1   
    42    18    45 1   
    43    19    32 1   
    44    19    46 1   
    45    19    47 1   
    46    20    32 1   
    47    20    48 1   
    48    20    49 1   
    49    21    22 1   
    50    21    23 1   
    51    22    50 1   
    52    22    51 1   
    53    22    52 1   
    54    23    53 1   
    55    23    54 1   
    56    23    55 1   
    57    24    32 1   
    58    24    58 1   
    59    24    59 1   
    60    25    29 1   
    61    25    60 1   
    62    26    28 2   
    63    28    31 1   
    64    31    61 1   
    65    56    61 1   
    66    57    61 1   
@<TRIPOS>SUBSTRUCTURE
     1 QWR         1 TEMP              0 ****  ****    0 ROOT
