@<TRIPOS>MOLECULE
QWR
   61    66     1     0     0
SMALL
No Charge or Current Charge


@<TRIPOS>ATOM
      1 C21        -41.6310    38.2740    24.1250 ca         1 QWR      -0.123000
      2 C24        -40.1930    40.2430    23.8840 ca         1 QWR      -0.053000
      3 C28        -39.5830    39.1090    27.2100 cc         1 QWR      -0.153100
      4 C16        -42.6360    36.0080    25.8480 cc         1 QWR      -0.161000
      5 C30        -42.7190    32.2700    25.3900 cc         1 QWR      -0.238100
      6 C29        -40.2390    38.9990    25.9470 ca         1 QWR      -0.133000
      7 C20        -41.1890    38.0720    25.4560 ca         1 QWR      -0.024500
      8 C25        -39.7520    40.0490    25.1990 ca         1 QWR      -0.069000
      9 C22        -41.1380    39.3460    23.3510 ca         1 QWR       0.009100
     10 C17        -41.7180    36.9380    26.2560 cd         1 QWR       0.240500
     11 C13        -43.6930    33.1450    25.8330 cd         1 QWR       0.015400
     12 C11        -44.4930    32.3270    24.0000 cc         1 QWR      -0.071000
     13 C10        -45.2250    31.9480    22.8470 cc         1 QWR      -0.078000
     14 C9         -44.6630    31.0270    21.9930 cd         1 QWR      -0.096000
     15 C32        -42.6360    30.8550    23.4220 cc         1 QWR      -0.085000
     16 C8         -43.3520    30.4720    22.2810 cd         1 QWR      -0.115300
     17 C4         -43.2940    26.1790    23.2770 c6         1 QWR      -0.067400
     18 C34        -41.2670    25.9460    21.7950 c6         1 QWR      -0.067400
     19 C5         -43.6590    27.4840    22.5230 c6         1 QWR       0.166300
     20 C33        -41.6800    27.2560    21.0760 c6         1 QWR       0.166300
     21 C2         -42.4870    25.1820    22.3920 c6         1 QWR      -0.051000
     22 C1         -41.9910    23.9860    23.2590 c3         1 QWR      -0.083600
     23 C3         -43.3820    24.5770    21.2620 c3         1 QWR      -0.083600
     24 C7         -42.7540    29.4590    21.3310 c3         1 QWR       0.220100
     25 N27        -38.7490    40.2190    27.1250 na         1 QWR      -0.000500
     26 N18        -41.3470    36.6560    27.5580 nd         1 QWR      -0.361000
     27 N12        -44.7870    33.1750    24.9680 nd         1 QWR      -0.295600
     28 N19        -41.9870    35.5980    27.9750 nc         1 QWR      -0.213800
     29 N26        -38.8230    40.8420    25.8760 nc         1 QWR      -0.286400
     30 N31        -43.2720    31.7850    24.2440 na         1 QWR       0.126100
     31 N15        -42.7750    35.1900    26.9420 na         1 QWR       0.117800
     32 N6         -42.4470    28.1600    21.9750 n3         1 QWR      -0.730600
     33 Br23       -41.7610    39.5820    21.5580 br         1 QWR      -0.120100
     34 H1         -42.3590    37.6030    23.6790 ha         1 QWR       0.125000
     35 H2         -39.8140    41.0680    23.2870 ha         1 QWR       0.142000
     36 H3         -39.6320    38.5230    28.1220 h4         1 QWR       0.247000
     37 H4         -43.1710    35.8650    24.9210 h4         1 QWR       0.185000
     38 H5         -41.7470    31.9850    25.7770 h4         1 QWR       0.239000
     39 H6         -46.2020    32.3820    22.6580 ha         1 QWR       0.146000
     40 H7         -45.2070    30.7200    21.1050 ha         1 QWR       0.125000
     41 H8         -41.6610    30.4880    23.7130 h4         1 QWR       0.164000
     42 H9         -44.2120    25.7020    23.6480 hc         1 QWR       0.047450
     43 H10        -42.7070    26.4430    24.1670 hc         1 QWR       0.047450
     44 H11        -40.7180    25.3000    21.0960 hc         1 QWR       0.047450
     45 H12        -40.5590    26.1960    22.5970 hc         1 QWR       0.047450
     46 H13        -44.1840    28.1470    23.2260 h1         1 QWR       0.033700
     47 H14        -44.3680    27.2560    21.7140 h1         1 QWR       0.033700
     48 H15        -40.7670    27.7600    20.7250 h1         1 QWR       0.033700
     49 H16        -42.2710    27.0130    20.1810 h1         1 QWR       0.033700
     50 H17        -41.3510    24.3260    24.0820 hc         1 QWR       0.034200
     51 H18        -42.8300    23.4370    23.7030 hc         1 QWR       0.034200
     52 H19        -41.4070    23.2730    22.6640 hc         1 QWR       0.034200
     53 H20        -44.2380    24.0330    21.6810 hc         1 QWR       0.034200
     54 H21        -43.7860    25.3430    20.5910 hc         1 QWR       0.034200
     55 H22        -42.8170    23.8710    20.6420 hc         1 QWR       0.034200
     56 H23        -44.6560    34.3540    27.3140 h1         1 QWR       0.083700
     57 H24        -43.2910    33.4000    27.9120 h1         1 QWR       0.083700
     58 H25        -41.8330    29.8950    20.9190 h1         1 QWR       0.044700
     59 H26        -43.4380    29.3060    20.4840 h1         1 QWR       0.044700
     60 H27        -38.1370    40.5780    27.8540 hn         1 QWR       0.372000
     61 C14        -43.6440    34.0090    27.0710 c3         1 QWR       0.165800
@<TRIPOS>BOND
     1     1     7 ar  
     2     1     9 ar  
     3     1    34 1   
     4     2     8 ar  
     5     2     9 ar  
     6     2    35 1   
     7     3     6 2   
     8     3    25 1   
     9     3    36 1   
    10     4    10 2   
    11     4    31 1   
    12     4    37 1   
    13     5    11 2   
    14     5    30 1   
    15     5    38 1   
    16     6     7 ar  
    17     6     8 ar  
    18     7    10 1   
    19     8    29 2   
    20     9    33 1   
    21    10    26 1   
    22    11    27 1   
    23    11    61 1   
    24    12    13 1   
    25    12    27 2   
    26    12    30 1   
    27    13    14 2   
    28    13    39 1   
    29    14    16 1   
    30    14    40 1   
    31    15    16 2   
    32    15    30 1   
    33    15    41 1   
    34    16    24 1   
    35    17    19 1   
    36    17    21 1   
    37    17    42 1   
    38    17    43 1   
    39    18    20 1   
    40    18    21 1   
    41    18    44 1   
    42    18    45 1   
    43    19    32 1   
    44    19    46 1   
    45    19    47 1   
    46    20    32 1   
    47    20    48 1   
    48    20    49 1   
    49    21    22 1   
    50    21    23 1   
    51    22    50 1   
    52    22    51 1   
    53    22    52 1   
    54    23    53 1   
    55    23    54 1   
    56    23    55 1   
    57    24    32 1   
    58    24    58 1   
    59    24    59 1   
    60    25    29 1   
    61    25    60 1   
    62    26    28 2   
    63    28    31 1   
    64    31    61 1   
    65    56    61 1   
    66    57    61 1   
@<TRIPOS>SUBSTRUCTURE
     1 QWR         1 TEMP              0 ****  ****    0 ROOT
