@<TRIPOS>MOLECULE
QWS
   45    47     1     0     0
SMALL
No Charge or Current Charge


@<TRIPOS>ATOM
      1 N1          -5.0220     8.1130    13.0470 na         1 QWS       0.238000
      2 N2          -5.8800     7.0390    13.0030 nc         1 QWS      -0.495800
      3 C3          -5.3870     6.2600    13.9650 cd         1 QWS       0.140500
      4 C4          -4.2480     6.8550    14.5820 cd         1 QWS       0.021600
      5 C5          -4.0070     8.0590    13.9860 cc         1 QWS      -0.185000
      6 N6          -3.5290     6.2740    15.6180 ns         1 QWS      -0.399100
      7 C7          -2.4290     6.7580    16.2790 c          1 QWS       0.650100
      8 N8          -1.9750     5.9380    17.2400 nt         1 QWS      -0.599000
      9 O9          -1.8840     7.8220    16.0520 o          1 QWS      -0.644100
     10 C10         -5.9780     4.9250    14.3360 c          1 QWS       0.544600
     11 N11         -7.0650     4.5430    13.6250 nt         1 QWS      -0.588000
     12 O12         -5.5460     4.1920    15.2150 o          1 QWS      -0.647100
     13 C13         -5.2080     9.1940    12.1850 ca         1 QWS      -0.000200
     14 C14         -4.8470     9.0430    10.8310 ca         1 QWS      -0.088000
     15 C15         -5.0030    10.1060     9.9290 ca         1 QWS      -0.118000
     16 C16         -5.5230    11.3310    10.3710 ca         1 QWS      -0.073000
     17 C17         -5.7410    10.4300    12.6380 ca         1 QWS       0.021000
     18 C18         -5.8930    11.4970    11.7190 ca         1 QWS      -0.069000
     19 C19         -6.4140    12.7310    12.1470 ca         1 QWS      -0.070000
     20 C20         -6.7930    12.9100    13.4860 ca         1 QWS      -0.122000
     21 C21         -6.6620    11.8610    14.4080 ca         1 QWS       0.160100
     22 C22         -6.1300    10.6240    13.9850 ca         1 QWS      -0.197000
     23 O23         -7.0530    12.1060    15.7120 os         1 QWS      -0.360100
     24 C24         -7.1630    11.0820    16.7200 c3         1 QWS       0.175300
     25 C25         -7.2760    11.8070    18.0740 c3         1 QWS      -0.107100
     26 C26         -8.4100    10.2200    16.4170 c3         1 QWS      -0.107100
     27 H1          -3.2650     8.8330    14.1300 h4         1 QWS       0.192000
     28 H2          -3.8430     5.3680    15.9480 hn         1 QWS       0.357500
     29 H3          -1.1680     6.2190    17.7750 hn         1 QWS       0.313000
     30 H4          -2.4270     5.0570    17.4290 hn         1 QWS       0.313000
     31 H5          -7.5090     3.6590    13.8250 hn         1 QWS       0.326500
     32 H6          -7.4190     5.1510    12.9000 hn         1 QWS       0.326500
     33 H7          -4.4400     8.0970    10.4800 ha         1 QWS       0.129000
     34 H8          -4.7190     9.9810     8.8860 ha         1 QWS       0.123000
     35 H9          -5.6390    12.1510     9.6650 ha         1 QWS       0.118000
     36 H10         -6.5280    13.5540    11.4440 ha         1 QWS       0.119000
     37 H11         -7.1960    13.8650    13.8130 ha         1 QWS       0.131000
     38 H12         -6.0200     9.8140    14.6960 ha         1 QWS       0.134000
     39 H13         -6.2640    10.4510    16.7490 h1         1 QWS       0.049700
     40 H14         -7.3660    11.0830    18.8910 hc         1 QWS       0.048200
     41 H15         -6.3840    12.4180    18.2570 hc         1 QWS       0.048200
     42 H16         -8.1550    12.4620    18.0950 hc         1 QWS       0.048200
     43 H17         -8.5560     9.4720    17.2040 hc         1 QWS       0.048200
     44 H18         -9.3100    10.8450    16.3660 hc         1 QWS       0.048200
     45 H19         -8.3070     9.6880    15.4650 hc         1 QWS       0.048200
@<TRIPOS>BOND
     1     1     2 1   
     2     1     5 1   
     3     1    13 1   
     4     2     3 2   
     5     3     4 1   
     6     3    10 1   
     7     4     5 2   
     8     4     6 1   
     9     5    27 1   
    10     6     7 1   
    11     6    28 1   
    12     7     8 1   
    13     7     9 2   
    14     8    29 1   
    15     8    30 1   
    16    10    11 1   
    17    10    12 2   
    18    11    31 1   
    19    11    32 1   
    20    13    14 ar  
    21    13    17 ar  
    22    14    15 ar  
    23    14    33 1   
    24    15    16 ar  
    25    15    34 1   
    26    16    18 ar  
    27    16    35 1   
    28    17    18 ar  
    29    17    22 ar  
    30    18    19 ar  
    31    19    20 ar  
    32    19    36 1   
    33    20    21 ar  
    34    20    37 1   
    35    21    22 ar  
    36    21    23 1   
    37    22    38 1   
    38    23    24 1   
    39    24    25 1   
    40    24    26 1   
    41    24    39 1   
    42    25    40 1   
    43    25    41 1   
    44    25    42 1   
    45    26    43 1   
    46    26    44 1   
    47    26    45 1   
@<TRIPOS>SUBSTRUCTURE
     1 QWS         1 TEMP              0 ****  ****    0 ROOT
