@<TRIPOS>MOLECULE
QWS
   45    47     1     0     0
SMALL
abcg2


@<TRIPOS>ATOM
      1 N1          -4.7290     8.3190    13.3170 na         1 QWS       0.238000
      2 N2          -5.7990     7.6930    13.8120 nc         1 QWS      -0.495800
      3 C3          -5.3150     6.7260    14.5970 cd         1 QWS       0.140500
      4 C4          -3.8960     6.7320    14.5910 cd         1 QWS       0.021600
      5 C5          -3.5510     7.7750    13.7530 cc         1 QWS      -0.185000
      6 N6          -3.1140     5.8510    15.3180 ns         1 QWS      -0.399100
      7 C7          -1.7430     5.8470    15.3410 c          1 QWS       0.650100
      8 N8          -1.1940     4.9350    16.1940 nt         1 QWS      -0.599000
      9 O9          -1.0660     6.6280    14.6720 o          1 QWS      -0.644100
     10 C10         -6.1850     5.8200    15.3640 c          1 QWS       0.544600
     11 N11         -7.5060     6.0530    15.2860 nt         1 QWS      -0.588000
     12 O12         -5.6970     4.9040    16.0420 o          1 QWS      -0.647100
     13 C13         -4.8620     9.4080    12.4070 ca         1 QWS      -0.000200
     14 C14         -4.1840     9.3480    11.2130 ca         1 QWS      -0.088000
     15 C15         -4.2750    10.4040    10.2890 ca         1 QWS      -0.118000
     16 C16         -5.0570    11.4960    10.5720 ca         1 QWS      -0.073000
     17 C17         -5.6600    10.5340    12.7560 ca         1 QWS       0.021000
     18 C18         -5.7580    11.5850    11.7950 ca         1 QWS      -0.069000
     19 C19         -6.5590    12.7130    12.1130 ca         1 QWS      -0.070000
     20 C20         -7.2150    12.8010    13.3060 ca         1 QWS      -0.122000
     21 C21         -7.0980    11.7640    14.2670 ca         1 QWS       0.160100
     22 C22         -6.3300    10.6540    13.9970 ca         1 QWS      -0.197000
     23 O23         -7.7800    11.9780    15.4180 os         1 QWS      -0.360100
     24 C24         -7.8100    10.9550    16.4450 c3         1 QWS       0.175300
     25 C25         -8.2260    11.6620    17.7200 c3         1 QWS      -0.107100
     26 C26         -8.7650     9.8370    16.0540 c3         1 QWS      -0.107100
     27 H1          -2.5990     8.1700    13.4580 h4         1 QWS       0.192000
     28 H2          -3.6450     5.1870    15.8700 hn         1 QWS       0.357500
     29 H3          -0.2070     4.7640    16.0900 hn         1 QWS       0.313000
     30 H4          -1.7470     4.1760    16.5600 hn         1 QWS       0.313000
     31 H5          -8.1470     5.4700    15.8000 hn         1 QWS       0.326500
     32 H6          -7.8640     6.8230    14.7450 hn         1 QWS       0.326500
     33 H7          -3.5910     8.4720    10.9840 ha         1 QWS       0.129000
     34 H8          -3.7390    10.3380     9.3510 ha         1 QWS       0.123000
     35 H9          -5.1460    12.3090     9.8630 ha         1 QWS       0.118000
     36 H10         -6.6420    13.5110    11.3860 ha         1 QWS       0.119000
     37 H11         -7.8290    13.6590    13.5480 ha         1 QWS       0.131000
     38 H12         -6.2420     9.8550    14.7110 ha         1 QWS       0.134000
     39 H13         -6.7970    10.5640    16.5660 h1         1 QWS       0.049700
     40 H14         -8.2500    10.9490    18.5460 hc         1 QWS       0.048200
     41 H15         -7.5210    12.4570    17.9690 hc         1 QWS       0.048200
     42 H16         -9.2220    12.0960    17.6090 hc         1 QWS       0.048200
     43 H17         -8.7680     9.0700    16.8310 hc         1 QWS       0.048200
     44 H18         -9.7780    10.2300    15.9500 hc         1 QWS       0.048200
     45 H19         -8.4730     9.3670    15.1160 hc         1 QWS       0.048200
@<TRIPOS>BOND
     1     1     2 1   
     2     1     5 1   
     3     1    13 1   
     4     2     3 2   
     5     3     4 1   
     6     3    10 1   
     7     4     5 2   
     8     4     6 1   
     9     5    27 1   
    10     6     7 1   
    11     6    28 1   
    12     7     8 1   
    13     7     9 2   
    14     8    29 1   
    15     8    30 1   
    16    10    11 1   
    17    10    12 2   
    18    11    31 1   
    19    11    32 1   
    20    13    14 ar  
    21    13    17 ar  
    22    14    15 ar  
    23    14    33 1   
    24    15    16 ar  
    25    15    34 1   
    26    16    18 ar  
    27    16    35 1   
    28    17    18 ar  
    29    17    22 ar  
    30    18    19 ar  
    31    19    20 ar  
    32    19    36 1   
    33    20    21 ar  
    34    20    37 1   
    35    21    22 ar  
    36    21    23 1   
    37    22    38 1   
    38    23    24 1   
    39    24    25 1   
    40    24    26 1   
    41    24    39 1   
    42    25    40 1   
    43    25    41 1   
    44    25    42 1   
    45    26    43 1   
    46    26    44 1   
    47    26    45 1   
@<TRIPOS>SUBSTRUCTURE
     1 QWS         1 TEMP              0 ****  ****    0 ROOT
