@<TRIPOS>MOLECULE
QWT
   78    82     1     0     0
SMALL
abcg2


@<TRIPOS>ATOM
      1 C1         144.1040     8.7830    -4.1970 c5         1 QWT      -0.207300
      2 C2         145.4290     8.2160    -4.7130 c3         1 QWT      -0.067100
      3 C3         143.4000     7.8110    -3.2460 c3         1 QWT      -0.067100
      4 C4         144.2180    10.1820    -3.6450 ce         1 QWT       0.389900
      5 C5         145.0000    10.6330    -2.4950 ca         1 QWT      -0.112900
      6 C6         145.7750     9.7730    -1.7340 ca         1 QWT      -0.083000
      7 C7         146.5250    10.2510    -0.6620 ca         1 QWT      -0.183000
      8 C8         146.5160    11.5960    -0.3350 ca         1 QWT       0.129100
      9 C9         148.0080    11.3170     1.4780 c3         1 QWT       0.144900
     10 C12        145.7670    15.1510    -2.7290 c3         1 QWT      -0.112400
     11 C13        145.0260    16.2350    -3.5070 c3         1 QWT      -0.080400
     12 C14        143.7030    15.7530    -4.0730 c3         1 QWT       0.159600
     13 C16        141.6090    17.6570    -6.3640 ca         1 QWT      -0.182000
     14 C18        139.5380    16.5070    -6.8180 ca         1 QWT      -0.195500
     15 C21        141.1750    15.5220    -5.3310 ca         1 QWT      -0.182000
     16 C22        144.9840    11.9970    -2.1560 ca         1 QWT      -0.145000
     17 C23        142.1370    11.1450    -6.3180 c3         1 QWT       0.146700
     18 C24        143.0130    11.4090    -7.5470 c3         1 QWT      -0.083400
     19 C25        142.2900    12.0220    -8.7480 c3         1 QWT      -0.068900
     20 C26        141.2080    13.0540    -8.4220 c3         1 QWT      -0.075900
     21 C29        140.7600    10.5430    -6.6220 c3         1 QWT      -0.083400
     22 N          137.7400    17.2580    -8.3820 na         1 QWT      -0.217700
     23 C          143.1890     9.0460    -5.3890 c          1 QWT       0.542000
     24 O          142.8040     8.2370    -6.2110 o          1 QWT      -0.518000
     25 C10        145.7270    12.4850    -1.1030 ca         1 QWT       0.106100
     26 C11        145.0560    14.7510    -1.4440 c3         1 QWT       0.157600
     27 C15        142.0160    16.6190    -5.5180 ca         1 QWT       0.176100
     28 C17        140.3900    17.6000    -7.0020 ca         1 QWT      -0.034500
     29 C19        138.2470    16.4130    -7.4770 cc         1 QWT       0.474000
     30 C20        139.9490    15.4810    -5.9730 ca         1 QWT      -0.034500
     31 C27        139.8400    12.4310    -8.1470 c3         1 QWT      -0.075900
     32 C28        139.7070    11.6260    -6.8590 c3         1 QWT      -0.068900
     33 N1         136.5430    16.8340    -8.7530 nc         1 QWT      -0.206800
     34 N2         136.3220    15.7650    -8.0980 nd         1 QWT      -0.040000
     35 N3         137.3450    15.4690    -7.3010 nd         1 QWT      -0.400000
     36 N4         143.5250    11.0190    -4.3260 n2         1 QWT      -0.441300
     37 N5         142.8880    10.3640    -5.3440 n          1 QWT      -0.183800
     38 O1         147.2020    12.1530     0.6730 os         1 QWT      -0.317100
     39 O2         145.7720    13.7710    -0.7070 os         1 QWT      -0.324100
     40 O3         143.2130    16.7670    -4.9400 os         1 QWT      -0.345100
     41 H1         146.1090     7.9800    -3.8970 hc         1 QWT       0.048700
     42 H2         145.2410     7.2950    -5.2650 hc         1 QWT       0.048700
     43 H3         145.9330     8.9170    -5.3790 hc         1 QWT       0.048700
     44 H4         144.0170     7.5870    -2.3770 hc         1 QWT       0.048700
     45 H5         142.4500     8.2120    -2.8920 hc         1 QWT       0.048700
     46 H6         143.2030     6.8720    -3.7650 hc         1 QWT       0.048700
     47 H7         145.8230     8.7160    -1.9480 ha         1 QWT       0.118000
     48 H8         147.1180     9.5480    -0.0930 ha         1 QWT       0.122000
     49 H9         148.4580    11.9570     2.2320 h1         1 QWT       0.042033
     50 H10        147.4200    10.5420     1.9770 h1         1 QWT       0.042033
     51 H11        148.8030    10.8380     0.9000 h1         1 QWT       0.042033
     52 H12        145.9150    14.2840    -3.3780 hc         1 QWT       0.060700
     53 H13        146.7630    15.5200    -2.4730 hc         1 QWT       0.060700
     54 H14        145.6630    16.5620    -4.3320 hc         1 QWT       0.059200
     55 H15        144.8580    17.1080    -2.8700 hc         1 QWT       0.059200
     56 H16        142.9780    15.5620    -3.2750 h1         1 QWT       0.041700
     57 H17        143.8430    14.8170    -4.6270 h1         1 QWT       0.041700
     58 H19        141.4540    14.6930    -4.6950 ha         1 QWT       0.131000
     59 H20        144.3740    12.6610    -2.7520 ha         1 QWT       0.134000
     60 H21        141.9650    12.0960    -5.8080 h1         1 QWT       0.062700
     61 H22        143.4790    10.4720    -7.8640 hc         1 QWT       0.051700
     62 H23        143.8290    12.0660    -7.2340 hc         1 QWT       0.051700
     63 H24        141.8380    11.2260    -9.3480 hc         1 QWT       0.039700
     64 H25        143.0480    12.4760    -9.3900 hc         1 QWT       0.039700
     65 H26        141.5190    13.6880    -7.5860 hc         1 QWT       0.040700
     66 H27        141.1000    13.7270    -9.2760 hc         1 QWT       0.040700
     67 H28        140.4380     9.9490    -5.7650 hc         1 QWT       0.051700
     68 H29        140.8100     9.8610    -7.4740 hc         1 QWT       0.051700
     69 H30        138.1290    18.0990    -8.7860 hn         1 QWT       0.385000
     70 H31        144.9910    15.6150    -0.7810 h1         1 QWT       0.054700
     71 H32        144.0310    14.4140    -1.6260 h1         1 QWT       0.054700
     72 H33        140.1120    18.4250    -7.6450 ha         1 QWT       0.124500
     73 H34        139.3060    14.6250    -5.8170 ha         1 QWT       0.124500
     74 H35        139.0840    13.2200    -8.1310 hc         1 QWT       0.040700
     75 H36        139.5850    11.7880    -8.9970 hc         1 QWT       0.040700
     76 H37        139.7190    12.3040    -5.9990 hc         1 QWT       0.039700
     77 H38        138.7190    11.1560    -6.8520 hc         1 QWT       0.039700
     78 H18        142.2610    18.5090    -6.5100 ha         1 QWT       0.131000
@<TRIPOS>BOND
     1     1     2 1   
     2     1     3 1   
     3     1     4 1   
     4     1    23 1   
     5     2    41 1   
     6     2    42 1   
     7     2    43 1   
     8     3    44 1   
     9     3    45 1   
    10     3    46 1   
    11     4     5 1   
    12     4    36 2   
    13     5     6 ar  
    14     5    16 ar  
    15     6     7 ar  
    16     6    47 1   
    17     7     8 ar  
    18     7    48 1   
    19     8    25 ar  
    20     8    38 1   
    21     9    38 1   
    22     9    49 1   
    23     9    50 1   
    24     9    51 1   
    25    10    11 1   
    26    10    26 1   
    27    10    52 1   
    28    10    53 1   
    29    11    12 1   
    30    11    54 1   
    31    11    55 1   
    32    12    40 1   
    33    12    56 1   
    34    12    57 1   
    35    13    27 ar  
    36    13    28 ar  
    37    13    78 1   
    38    14    28 ar  
    39    14    29 1   
    40    14    30 ar  
    41    15    27 ar  
    42    15    30 ar  
    43    15    58 1   
    44    16    25 ar  
    45    16    59 1   
    46    17    18 1   
    47    17    21 1   
    48    17    37 1   
    49    17    60 1   
    50    18    19 1   
    51    18    61 1   
    52    18    62 1   
    53    19    20 1   
    54    19    63 1   
    55    19    64 1   
    56    20    31 1   
    57    20    65 1   
    58    20    66 1   
    59    21    32 1   
    60    21    67 1   
    61    21    68 1   
    62    22    29 1   
    63    22    33 1   
    64    22    69 1   
    65    23    24 2   
    66    23    37 1   
    67    25    39 1   
    68    26    39 1   
    69    26    70 1   
    70    26    71 1   
    71    27    40 1   
    72    28    72 1   
    73    29    35 2   
    74    30    73 1   
    75    31    32 1   
    76    31    74 1   
    77    31    75 1   
    78    32    76 1   
    79    32    77 1   
    80    33    34 2   
    81    34    35 1   
    82    36    37 1   
@<TRIPOS>SUBSTRUCTURE
     1 QWT         1 TEMP              0 ****  ****    0 ROOT
