@<TRIPOS>MOLECULE
QWT
   78    82     1     0     0
SMALL
No Charge or Current Charge


@<TRIPOS>ATOM
      1 C1         143.9500     9.0100    -4.2600 c5         1 QWT      -0.207300
      2 C2         145.3570     8.5170    -4.7060 c3         1 QWT      -0.067100
      3 C3         143.2110     7.8850    -3.4810 c3         1 QWT      -0.067100
      4 C4         143.9780    10.3530    -3.5090 ce         1 QWT       0.389900
      5 C5         144.8340    10.7520    -2.3330 ca         1 QWT      -0.112900
      6 C6         145.5220     9.8010    -1.5510 ca         1 QWT      -0.083000
      7 C7         146.3480    10.2000    -0.4870 ca         1 QWT      -0.183000
      8 C8         146.5090    11.5690    -0.1810 ca         1 QWT       0.129100
      9 C9         148.0720    11.0800     1.6760 c3         1 QWT       0.144900
     10 C12        146.0610    15.1480    -2.7170 c3         1 QWT      -0.112400
     11 C13        145.2890    16.0600    -3.7030 c3         1 QWT      -0.080400
     12 C14        143.8830    15.5340    -4.0670 c3         1 QWT       0.159600
     13 C16        141.6790    16.9520    -6.7060 ca         1 QWT      -0.182000
     14 C18        139.4420    15.9660    -6.6330 ca         1 QWT      -0.195500
     15 C21        141.1400    15.3220    -4.9910 ca         1 QWT      -0.182000
     16 C22        144.9690    12.1180    -1.9950 ca         1 QWT      -0.145000
     17 C23        142.0690    11.4930    -6.3640 c3         1 QWT       0.146700
     18 C24        143.0480    11.9620    -7.4740 c3         1 QWT      -0.083400
     19 C25        142.4350    12.5210    -8.7800 c3         1 QWT      -0.068900
     20 C26        141.2050    13.4360    -8.6080 c3         1 QWT      -0.075900
     21 C29        140.7410    10.8440    -6.8400 c3         1 QWT      -0.083400
     22 N          137.5790    16.4520    -8.2750 na         1 QWT      -0.217700
     23 C          143.1340     9.3500    -5.5260 c          1 QWT       0.542000
     24 O          142.8810     8.6490    -6.4970 o          1 QWT      -0.518000
     25 C10        145.8160    12.5370    -0.9420 ca         1 QWT       0.106100
     26 C11        145.3600    14.9570    -1.3440 c3         1 QWT       0.157600
     27 C15        142.0690    16.1960    -5.5920 ca         1 QWT       0.176100
     28 C17        140.3800    16.8390    -7.2300 ca         1 QWT      -0.034500
     29 C19        138.0830    15.8220    -7.1740 cc         1 QWT       0.474000
     30 C20        139.8360    15.2180    -5.5020 ca         1 QWT      -0.034500
     31 C27        139.8680    12.6640    -8.5160 c3         1 QWT      -0.075900
     32 C28        139.6380    11.8630    -7.2160 c3         1 QWT      -0.068900
     33 N1         136.2960    16.0710    -8.4960 nc         1 QWT      -0.206800
     34 N2         136.0390    15.2230    -7.5370 nd         1 QWT      -0.040000
     35 N3         137.1230    15.0490    -6.7080 nd         1 QWT      -0.400000
     36 N4         143.2710    11.2080    -4.1760 n2         1 QWT      -0.441300
     37 N5         142.7790    10.6940    -5.3370 n          1 QWT      -0.183800
     38 O1         147.3290    11.9950     0.8520 os         1 QWT      -0.317100
     39 O2         145.9950    13.8790    -0.6260 os         1 QWT      -0.324100
     40 O3         143.3560    16.3560    -5.1200 os         1 QWT      -0.345100
     41 H1         145.9930     8.2390    -3.8590 hc         1 QWT       0.048700
     42 H2         145.2830     7.6350    -5.3550 hc         1 QWT       0.048700
     43 H3         145.8850     9.2950    -5.2710 hc         1 QWT       0.048700
     44 H4         143.7380     7.5910    -2.5680 hc         1 QWT       0.048700
     45 H5         142.2040     8.2080    -3.1870 hc         1 QWT       0.048700
     46 H6         143.0990     6.9840    -4.0960 hc         1 QWT       0.048700
     47 H7         145.4310     8.7400    -1.7570 ha         1 QWT       0.118000
     48 H8         146.8600     9.4310     0.0830 ha         1 QWT       0.122000
     49 H9         148.6530    11.6310     2.4260 h1         1 QWT       0.042033
     50 H10        147.3980    10.3950     2.2050 h1         1 QWT       0.042033
     51 H11        148.7720    10.4900     1.0700 h1         1 QWT       0.042033
     52 H12        146.2320    14.1800    -3.2010 hc         1 QWT       0.060700
     53 H13        147.0550    15.5770    -2.5410 hc         1 QWT       0.060700
     54 H14        145.8800    16.1580    -4.6220 hc         1 QWT       0.059200
     55 H15        145.1970    17.0650    -3.2750 hc         1 QWT       0.059200
     56 H16        143.2390    15.5850    -3.1810 h1         1 QWT       0.041700
     57 H17        143.9490    14.4880    -4.3980 h1         1 QWT       0.041700
     58 H19        141.4040    14.7220    -4.1260 ha         1 QWT       0.131000
     59 H20        144.4210    12.8510    -2.5770 ha         1 QWT       0.134000
     60 H21        141.7630    12.4100    -5.8420 h1         1 QWT       0.062700
     61 H22        143.7030    11.1270    -7.7490 hc         1 QWT       0.051700
     62 H23        143.7030    12.7270    -7.0390 hc         1 QWT       0.051700
     63 H24        142.1750    11.6860    -9.4430 hc         1 QWT       0.039700
     64 H25        143.2180    13.0830    -9.3030 hc         1 QWT       0.039700
     65 H26        141.3370    14.0830    -7.7340 hc         1 QWT       0.040700
     66 H27        141.1480    14.1000    -9.4790 hc         1 QWT       0.040700
     67 H28        140.3450    10.2280    -6.0230 hc         1 QWT       0.051700
     68 H29        140.9280    10.1630    -7.6790 hc         1 QWT       0.051700
     69 H30        138.0580    17.1140    -8.8700 hn         1 QWT       0.385000
     70 H31        145.4500    15.8910    -0.7740 h1         1 QWT       0.054700
     71 H32        144.2890    14.7540    -1.4610 h1         1 QWT       0.054700
     72 H33        140.1150    17.4340    -8.1010 ha         1 QWT       0.124500
     73 H34        139.1330    14.5440    -5.0160 ha         1 QWT       0.124500
     74 H35        139.0460    13.3830    -8.6220 hc         1 QWT       0.040700
     75 H36        139.7860    11.9850    -9.3730 hc         1 QWT       0.040700
     76 H37        139.4970    12.5600    -6.3820 hc         1 QWT       0.039700
     77 H38        138.6890    11.3220    -7.3170 hc         1 QWT       0.039700
     78 H18        142.3920    17.6280    -7.1710 ha         1 QWT       0.131000
@<TRIPOS>BOND
     1     1     2 1   
     2     1     3 1   
     3     1     4 1   
     4     1    23 1   
     5     2    41 1   
     6     2    42 1   
     7     2    43 1   
     8     3    44 1   
     9     3    45 1   
    10     3    46 1   
    11     4     5 1   
    12     4    36 2   
    13     5     6 ar  
    14     5    16 ar  
    15     6     7 ar  
    16     6    47 1   
    17     7     8 ar  
    18     7    48 1   
    19     8    25 ar  
    20     8    38 1   
    21     9    38 1   
    22     9    49 1   
    23     9    50 1   
    24     9    51 1   
    25    10    11 1   
    26    10    26 1   
    27    10    52 1   
    28    10    53 1   
    29    11    12 1   
    30    11    54 1   
    31    11    55 1   
    32    12    40 1   
    33    12    56 1   
    34    12    57 1   
    35    13    27 ar  
    36    13    28 ar  
    37    13    78 1   
    38    14    28 ar  
    39    14    29 1   
    40    14    30 ar  
    41    15    27 ar  
    42    15    30 ar  
    43    15    58 1   
    44    16    25 ar  
    45    16    59 1   
    46    17    18 1   
    47    17    21 1   
    48    17    37 1   
    49    17    60 1   
    50    18    19 1   
    51    18    61 1   
    52    18    62 1   
    53    19    20 1   
    54    19    63 1   
    55    19    64 1   
    56    20    31 1   
    57    20    65 1   
    58    20    66 1   
    59    21    32 1   
    60    21    67 1   
    61    21    68 1   
    62    22    29 1   
    63    22    33 1   
    64    22    69 1   
    65    23    24 2   
    66    23    37 1   
    67    25    39 1   
    68    26    39 1   
    69    26    70 1   
    70    26    71 1   
    71    27    40 1   
    72    28    72 1   
    73    29    35 2   
    74    30    73 1   
    75    31    32 1   
    76    31    74 1   
    77    31    75 1   
    78    32    76 1   
    79    32    77 1   
    80    33    34 2   
    81    34    35 1   
    82    36    37 1   
@<TRIPOS>SUBSTRUCTURE
     1 QWT         1 TEMP              0 ****  ****    0 ROOT
