@<TRIPOS>MOLECULE
QWV
  176   177     1     0     0
SMALL
No Charge or Current Charge


@<TRIPOS>ATOM
      1 C1           7.2540    -5.4480     0.8390 c3         1 QWV       0.144600
      2 C2           6.8710    -3.9720     1.1320 c3         1 QWV       0.082700
      3 N2           5.6080    -3.6280     0.4510 ns         1 QWV      -0.506900
      4 C3           8.0180    -2.9640     0.8090 c3         1 QWV       0.161300
      5 O3           9.1850    -3.2940     1.5810 oh         1 QWV      -0.644000
      6 C4           7.6380    -1.4830     1.0890 c3         1 QWV      -0.110400
      7 C5           8.7360    -0.4620     0.7010 c3         1 QWV      -0.072400
      8 C6           8.3130     1.0030     0.9480 c3         1 QWV      -0.075400
      9 C7           9.4140     2.0180     0.5690 c3         1 QWV      -0.074400
     10 C8           9.0030     3.4840     0.8290 c3         1 QWV      -0.074400
     11 C9          10.1110     4.4940     0.4580 c3         1 QWV      -0.074400
     12 C10          9.7110     5.9600     0.7320 c3         1 QWV      -0.074400
     13 C11         10.8260     6.9660     0.3700 c3         1 QWV      -0.074400
     14 C12         10.4350     8.4330     0.6550 c3         1 QWV      -0.074400
     15 C13         11.5540     9.4360     0.2990 c3         1 QWV      -0.074400
     16 C14         11.1680    10.9020     0.5910 c3         1 QWV      -0.074400
     17 C15         12.2900    11.9030     0.2380 c3         1 QWV      -0.074400
     18 C16         11.9070    13.3700     0.5330 c3         1 QWV      -0.075400
     19 C17         13.0300    14.3700     0.1810 c3         1 QWV      -0.074400
     20 C18         12.6490    15.8340     0.4760 c3         1 QWV      -0.088100
     21 C1A          7.7090    -6.9460    -1.0320 c6         1 QWV       0.359300
     22 O1A          7.5240    -5.5950    -0.5700 os         1 QWV      -0.476000
     23 C2A          8.3390    -6.9610    -2.4650 c6         1 QWV       0.116300
     24 O2A          9.5370    -6.1490    -2.5310 oh         1 QWV      -0.709000
     25 C3A          7.3070    -6.4680    -3.5260 c6         1 QWV       0.139300
     26 O3A          7.8610    -6.6080    -4.8490 oh         1 QWV      -0.672000
     27 C4A          5.9670    -7.2510    -3.4120 c6         1 QWV       0.149300
     28 O4A          6.1710    -8.6170    -3.8300 oh         1 QWV      -0.712000
     29 C5M          5.4500    -7.1450    -1.9430 c6         1 QWV       0.169300
     30 O6A          6.4450    -7.6470    -1.0080 os         1 QWV      -0.452000
     31 CAA          4.3690    -4.0750     0.8470 c          1 QWV       0.603100
     32 OAA          4.2120    -4.7530     1.8520 o          1 QWV      -0.605100
     33 CAB          3.2120    -3.6950    -0.0810 c3         1 QWV      -0.156400
     34 CAC          2.1900    -2.7730     0.6220 c3         1 QWV      -0.068400
     35 CAD          0.9560    -2.4590    -0.2510 c3         1 QWV      -0.077400
     36 CAE         -0.1140    -1.6360     0.4980 c3         1 QWV      -0.076400
     37 CAF         -1.3950    -1.4130    -0.3330 c3         1 QWV      -0.073400
     38 CAG         -2.4970    -0.6670     0.4490 c3         1 QWV      -0.075400
     39 CAH         -3.7980    -0.4900    -0.3640 c3         1 QWV      -0.072400
     40 CAI         -4.9090     0.2370     0.4230 c3         1 QWV      -0.075400
     41 CAJ         -6.2110     0.4080    -0.3890 c3         1 QWV      -0.073400
     42 CAK         -7.3270     1.1270     0.4000 c3         1 QWV      -0.075400
     43 CAL         -8.6290     1.2950    -0.4150 c3         1 QWV      -0.073400
     44 CAM         -9.7500     2.0050     0.3760 c3         1 QWV      -0.075400
     45 CAN        -11.0510     2.1690    -0.4400 c3         1 QWV      -0.073400
     46 CAO        -12.1780     2.8680     0.3520 c3         1 QWV      -0.074400
     47 CAP        -13.4790     3.0290    -0.4650 c3         1 QWV      -0.074400
     48 CAQ        -14.6090     3.7210     0.3280 c3         1 QWV      -0.074400
     49 CAR        -15.9100     3.8770    -0.4890 c3         1 QWV      -0.074400
     50 CAS        -17.0430     4.5650     0.3030 c3         1 QWV      -0.074400
     51 CAT        -18.3450     4.7190    -0.5140 c3         1 QWV      -0.074400
     52 CAU        -19.4780     5.4060     0.2800 c3         1 QWV      -0.074400
     53 CAV        -20.7790     5.5620    -0.5370 c3         1 QWV      -0.074400
     54 CAW        -21.9120     6.2490     0.2570 c3         1 QWV      -0.074400
     55 CAX        -23.2120     6.4090    -0.5610 c3         1 QWV      -0.075400
     56 CAY        -24.3450     7.0970     0.2330 c3         1 QWV      -0.075400
     57 CAZ        -25.6410     7.2590    -0.5840 c3         1 QWV      -0.088100
     58 CCI          2.2520    -8.0390    -0.2300 c          1 QWV       0.592100
     59 CCL         -0.5330    -5.6290     1.1760 ca         1 QWV      -0.083300
     60 CCM         -1.7690    -5.1310     0.7160 ca         1 QWV      -0.103500
     61 CCN         -2.5750    -4.3310     1.5440 ca         1 QWV      -0.108500
     62 CCO         -2.1510    -4.0150     2.8430 ca         1 QWV      -0.109000
     63 CCP         -0.9190    -4.4990     3.3120 ca         1 QWV      -0.108500
     64 CCQ         -0.1130    -5.3020     2.4860 ca         1 QWV      -0.103500
     65 C6C          4.1360    -7.9520    -1.7310 c3         1 QWV       0.173600
     66 O6C          3.3870    -7.3880    -0.6330 os         1 QWV      -0.445100
     67 OCI          1.8670    -9.1070    -0.6860 o          1 QWV      -0.493000
     68 CCJ          1.4960    -7.2550     0.8420 c3         1 QWV      -0.144400
     69 CCK          0.3030    -6.4860     0.2190 c3         1 QWV      -0.021100
     70 H1           8.1330    -5.7300     1.4320 h1         1 QWV       0.052200
     71 H2           6.4260    -6.1010     1.1460 h1         1 QWV       0.052200
     72 H3           6.6810    -3.9020     2.2110 h1         1 QWV       0.081700
     73 H4           5.6490    -3.0970    -0.4100 hn         1 QWV       0.313500
     74 H5           8.2470    -3.0550    -0.2630 h1         1 QWV       0.084700
     75 H6           9.0770    -2.8770     2.4620 ho         1 QWV       0.437000
     76 H7           6.7300    -1.2320     0.5270 hc         1 QWV       0.046700
     77 H8           7.3880    -1.3650     2.1510 hc         1 QWV       0.046700
     78 H9           9.6500    -0.6670     1.2720 hc         1 QWV       0.045200
     79 H10          8.9870    -0.5900    -0.3600 hc         1 QWV       0.045200
     80 H11          7.4070     1.2200     0.3700 hc         1 QWV       0.036700
     81 H12          8.0560     1.1290     2.0070 hc         1 QWV       0.036700
     82 H13         10.3230     1.7930     1.1410 hc         1 QWV       0.038200
     83 H14          9.6650     1.8970    -0.4920 hc         1 QWV       0.038200
     84 H15          8.0980     3.7130     0.2520 hc         1 QWV       0.037200
     85 H16          8.7460     3.6030     1.8890 hc         1 QWV       0.037200
     86 H17         11.0180     4.2570     1.0280 hc         1 QWV       0.037700
     87 H18         10.3610     4.3810    -0.6040 hc         1 QWV       0.037700
     88 H19          8.8070     6.2010     0.1580 hc         1 QWV       0.037200
     89 H20          9.4570     6.0720     1.7930 hc         1 QWV       0.037200
     90 H21         11.7320     6.7190     0.9380 hc         1 QWV       0.036700
     91 H22         11.0760     6.8600    -0.6930 hc         1 QWV       0.036700
     92 H23          9.5320     8.6830     0.0840 hc         1 QWV       0.037200
     93 H24         10.1820     8.5380     1.7170 hc         1 QWV       0.037200
     94 H25         12.4580     9.1820     0.8660 hc         1 QWV       0.036700
     95 H26         11.8040     9.3340    -0.7650 hc         1 QWV       0.036700
     96 H27         10.2650    11.1570     0.0220 hc         1 QWV       0.036700
     97 H28         10.9160    11.0040     1.6540 hc         1 QWV       0.036700
     98 H29         13.1930    11.6460     0.8050 hc         1 QWV       0.036700
     99 H30         12.5400    11.8030    -0.8260 hc         1 QWV       0.036700
    100 H31         11.0040    13.6280    -0.0340 hc         1 QWV       0.036700
    101 H32         11.6560    13.4700     1.5970 hc         1 QWV       0.036700
    102 H33         13.9340    14.1160     0.7480 hc         1 QWV       0.036700
    103 H34         13.2810    14.2750    -0.8830 hc         1 QWV       0.036700
    104 H35         11.7670    16.1300    -0.1050 hc         1 QWV       0.031367
    105 H36         12.4250    15.9700     1.5410 hc         1 QWV       0.031367
    106 H37         13.4750    16.5040     0.2110 hc         1 QWV       0.031367
    107 H38          8.4090    -7.4560    -0.3530 h2         1 QWV       0.072700
    108 H39          8.5930    -8.0070    -2.6940 h1         1 QWV       0.064700
    109 H40          9.3880    -5.3980    -1.9080 ho         1 QWV       0.512000
    110 H41          7.0920    -5.4070    -3.3250 h1         1 QWV       0.061700
    111 H42          8.7990    -6.3130    -4.7660 ho         1 QWV       0.469000
    112 H43          5.2310    -6.7670    -4.0720 h1         1 QWV       0.050700
    113 H44          6.7810    -8.5470    -4.6040 ho         1 QWV       0.524000
    114 H45          5.2420    -6.0880    -1.7150 h1         1 QWV       0.051700
    115 H46          3.5930    -3.1960    -0.9800 hc         1 QWV       0.055700
    116 H47          2.7040    -4.6170    -0.3810 hc         1 QWV       0.055700
    117 H48          1.8540    -3.2550     1.5490 hc         1 QWV       0.053700
    118 H49          2.6820    -1.8350     0.9110 hc         1 QWV       0.053700
    119 H50          1.2730    -1.9140    -1.1480 hc         1 QWV       0.037700
    120 H51          0.5070    -3.4000    -0.5900 hc         1 QWV       0.037700
    121 H52         -0.3780    -2.1560     1.4270 hc         1 QWV       0.039200
    122 H53          0.3080    -0.6650     0.7850 hc         1 QWV       0.039200
    123 H54         -1.1450    -0.8480    -1.2390 hc         1 QWV       0.038200
    124 H55         -1.7850    -2.3850    -0.6600 hc         1 QWV       0.038200
    125 H56         -2.7230    -1.2190     1.3690 hc         1 QWV       0.038200
    126 H57         -2.1220     0.3190     0.7510 hc         1 QWV       0.038200
    127 H58         -3.5770     0.0720    -1.2800 hc         1 QWV       0.037200
    128 H59         -4.1650    -1.4770    -0.6740 hc         1 QWV       0.037200
    129 H60         -5.1280    -0.3250     1.3400 hc         1 QWV       0.037200
    130 H61         -4.5450     1.2250     0.7320 hc         1 QWV       0.037200
    131 H62         -5.9940     0.9740    -1.3040 hc         1 QWV       0.037200
    132 H63         -6.5720    -0.5800    -0.7030 hc         1 QWV       0.037200
    133 H64         -7.5450     0.5600     1.3130 hc         1 QWV       0.036700
    134 H65         -6.9680     2.1150     0.7130 hc         1 QWV       0.036700
    135 H66         -8.4130     1.8670    -1.3260 hc         1 QWV       0.037200
    136 H67         -8.9840     0.3070    -0.7330 hc         1 QWV       0.037200
    137 H68         -9.9660     1.4330     1.2870 hc         1 QWV       0.037200
    138 H69         -9.3970     2.9940     0.6940 hc         1 QWV       0.037200
    139 H70        -10.8370     2.7470    -1.3480 hc         1 QWV       0.037200
    140 H71        -11.4000     1.1810    -0.7650 hc         1 QWV       0.037200
    141 H72        -12.3910     2.2900     1.2600 hc         1 QWV       0.036700
    142 H73        -11.8310     3.8580     0.6750 hc         1 QWV       0.036700
    143 H74        -13.2660     3.6110    -1.3710 hc         1 QWV       0.037200
    144 H75        -13.8220     2.0400    -0.7930 hc         1 QWV       0.037200
    145 H76        -14.8210     3.1400     1.2340 hc         1 QWV       0.037200
    146 H77        -14.2670     4.7110     0.6540 hc         1 QWV       0.037200
    147 H78        -15.6990     4.4590    -1.3950 hc         1 QWV       0.036700
    148 H79        -16.2510     2.8870    -0.8170 hc         1 QWV       0.036700
    149 H80        -17.2540     3.9830     1.2090 hc         1 QWV       0.036700
    150 H81        -16.7040     5.5560     0.6310 hc         1 QWV       0.036700
    151 H82        -18.1340     5.3020    -1.4190 hc         1 QWV       0.036700
    152 H83        -18.6840     3.7290    -0.8420 hc         1 QWV       0.036700
    153 H84        -19.6890     4.8220     1.1850 hc         1 QWV       0.036700
    154 H85        -19.1380     6.3960     0.6080 hc         1 QWV       0.036700
    155 H86        -20.5690     6.1460    -1.4420 hc         1 QWV       0.036700
    156 H87        -21.1190     4.5720    -0.8670 hc         1 QWV       0.036700
    157 H88        -22.1240     5.6630     1.1600 hc         1 QWV       0.036700
    158 H89        -21.5710     7.2380     0.5890 hc         1 QWV       0.036700
    159 H90        -23.0000     6.9940    -1.4650 hc         1 QWV       0.036700
    160 H91        -23.5540     5.4200    -0.8920 hc         1 QWV       0.036700
    161 H92        -24.5630     6.5130     1.1350 hc         1 QWV       0.036700
    162 H93        -24.0070     8.0860     0.5650 hc         1 QWV       0.036700
    163 H94        -26.0240     6.2810    -0.9020 hc         1 QWV       0.031367
    164 H95        -26.4140     7.7500     0.0190 hc         1 QWV       0.031367
    165 H96        -25.4630     7.8690    -1.4770 hc         1 QWV       0.031367
    166 H97         -2.1070    -5.3630    -0.2920 ha         1 QWV       0.110500
    167 H98         -3.5260    -3.9530     1.1750 ha         1 QWV       0.111500
    168 H99         -2.7720    -3.3930     3.4840 ha         1 QWV       0.111000
    169 H100        -0.5870    -4.2520     4.3180 ha         1 QWV       0.111500
    170 H101         0.8360    -5.6560     2.8780 ha         1 QWV       0.110500
    171 H102         3.5380    -7.9100    -2.6510 h1         1 QWV       0.068200
    172 H103         4.3940    -9.0030    -1.5430 h1         1 QWV       0.068200
    173 H104         1.1160    -7.9520     1.5970 hc         1 QWV       0.085200
    174 H105         2.1830    -6.5310     1.2920 hc         1 QWV       0.085200
    175 H106        -0.3550    -7.2190    -0.2650 hc         1 QWV       0.058200
    176 H107         0.6800    -5.8510    -0.5920 hc         1 QWV       0.058200
@<TRIPOS>BOND
     1     1     2 1   
     2     1    22 1   
     3     1    70 1   
     4     1    71 1   
     5     2     3 1   
     6     2     4 1   
     7     2    72 1   
     8     3    31 1   
     9     3    73 1   
    10     4     5 1   
    11     4     6 1   
    12     4    74 1   
    13     5    75 1   
    14     6     7 1   
    15     6    76 1   
    16     6    77 1   
    17     7     8 1   
    18     7    78 1   
    19     7    79 1   
    20     8     9 1   
    21     8    80 1   
    22     8    81 1   
    23     9    10 1   
    24     9    82 1   
    25     9    83 1   
    26    10    11 1   
    27    10    84 1   
    28    10    85 1   
    29    11    12 1   
    30    11    86 1   
    31    11    87 1   
    32    12    13 1   
    33    12    88 1   
    34    12    89 1   
    35    13    14 1   
    36    13    90 1   
    37    13    91 1   
    38    14    15 1   
    39    14    92 1   
    40    14    93 1   
    41    15    16 1   
    42    15    94 1   
    43    15    95 1   
    44    16    17 1   
    45    16    96 1   
    46    16    97 1   
    47    17    18 1   
    48    17    98 1   
    49    17    99 1   
    50    18    19 1   
    51    18   100 1   
    52    18   101 1   
    53    19    20 1   
    54    19   102 1   
    55    19   103 1   
    56    20   104 1   
    57    20   105 1   
    58    20   106 1   
    59    21    22 1   
    60    21    23 1   
    61    21    30 1   
    62    21   107 1   
    63    23    24 1   
    64    23    25 1   
    65    23   108 1   
    66    24   109 1   
    67    25    26 1   
    68    25    27 1   
    69    25   110 1   
    70    26   111 1   
    71    27    28 1   
    72    27    29 1   
    73    27   112 1   
    74    28   113 1   
    75    29    30 1   
    76    29    65 1   
    77    29   114 1   
    78    31    32 2   
    79    31    33 1   
    80    33    34 1   
    81    33   115 1   
    82    33   116 1   
    83    34    35 1   
    84    34   117 1   
    85    34   118 1   
    86    35    36 1   
    87    35   119 1   
    88    35   120 1   
    89    36    37 1   
    90    36   121 1   
    91    36   122 1   
    92    37    38 1   
    93    37   123 1   
    94    37   124 1   
    95    38    39 1   
    96    38   125 1   
    97    38   126 1   
    98    39    40 1   
    99    39   127 1   
   100    39   128 1   
   101    40    41 1   
   102    40   129 1   
   103    40   130 1   
   104    41    42 1   
   105    41   131 1   
   106    41   132 1   
   107    42    43 1   
   108    42   133 1   
   109    42   134 1   
   110    43    44 1   
   111    43   135 1   
   112    43   136 1   
   113    44    45 1   
   114    44   137 1   
   115    44   138 1   
   116    45    46 1   
   117    45   139 1   
   118    45   140 1   
   119    46    47 1   
   120    46   141 1   
   121    46   142 1   
   122    47    48 1   
   123    47   143 1   
   124    47   144 1   
   125    48    49 1   
   126    48   145 1   
   127    48   146 1   
   128    49    50 1   
   129    49   147 1   
   130    49   148 1   
   131    50    51 1   
   132    50   149 1   
   133    50   150 1   
   134    51    52 1   
   135    51   151 1   
   136    51   152 1   
   137    52    53 1   
   138    52   153 1   
   139    52   154 1   
   140    53    54 1   
   141    53   155 1   
   142    53   156 1   
   143    54    55 1   
   144    54   157 1   
   145    54   158 1   
   146    55    56 1   
   147    55   159 1   
   148    55   160 1   
   149    56    57 1   
   150    56   161 1   
   151    56   162 1   
   152    57   163 1   
   153    57   164 1   
   154    57   165 1   
   155    58    66 1   
   156    58    67 2   
   157    58    68 1   
   158    59    60 ar  
   159    59    64 ar  
   160    59    69 1   
   161    60    61 ar  
   162    60   166 1   
   163    61    62 ar  
   164    61   167 1   
   165    62    63 ar  
   166    62   168 1   
   167    63    64 ar  
   168    63   169 1   
   169    64   170 1   
   170    65    66 1   
   171    65   171 1   
   172    65   172 1   
   173    68    69 1   
   174    68   173 1   
   175    68   174 1   
   176    69   175 1   
   177    69   176 1   
@<TRIPOS>SUBSTRUCTURE
     1 QWV         1 TEMP              0 ****  ****    0 ROOT
