@<TRIPOS>MOLECULE
QWV
  176   177     1     0     0
SMALL
abcg2


@<TRIPOS>ATOM
      1 C1           6.8440    -5.0430     0.7090 c3         1 QWV       0.144600
      2 C2           6.6260    -3.5580     0.9610 c3         1 QWV       0.082700
      3 N2           5.4680    -3.0790     0.2370 ns         1 QWV      -0.506900
      4 C3           7.8510    -2.6940     0.6070 c3         1 QWV       0.161300
      5 O3           9.0130    -3.2260     1.2030 oh         1 QWV      -0.644000
      6 C4           7.6380    -1.2290     0.9750 c3         1 QWV      -0.110400
      7 C5           8.8110    -0.3300     0.6000 c3         1 QWV      -0.072400
      8 C6           8.5460     1.1370     0.9150 c3         1 QWV      -0.075400
      9 C7           9.7060     2.0500     0.5370 c3         1 QWV      -0.074400
     10 C8           9.4440     3.5180     0.8510 c3         1 QWV      -0.074400
     11 C9          10.6010     4.4320     0.4660 c3         1 QWV      -0.074400
     12 C10         10.3410     5.8990     0.7800 c3         1 QWV      -0.074400
     13 C11         11.4980     6.8120     0.3940 c3         1 QWV      -0.074400
     14 C12         11.2400     8.2800     0.7090 c3         1 QWV      -0.074400
     15 C13         12.3990     9.1920     0.3250 c3         1 QWV      -0.074400
     16 C14         12.1420    10.6600     0.6420 c3         1 QWV      -0.074400
     17 C15         13.3030    11.5710     0.2620 c3         1 QWV      -0.074400
     18 C16         13.0460    13.0380     0.5810 c3         1 QWV      -0.075400
     19 C17         14.2080    13.9510     0.2070 c3         1 QWV      -0.074400
     20 C18         13.9380    15.4140     0.5300 c3         1 QWV      -0.088100
     21 C1A          6.9900    -6.5170    -1.1370 c6         1 QWV       0.359300
     22 O1A          7.1410    -5.2230    -0.6610 os         1 QWV      -0.476000
     23 C2A          7.5880    -6.5900    -2.5450 c6         1 QWV       0.116300
     24 O2A          8.9160    -6.1320    -2.5890 oh         1 QWV      -0.709000
     25 C3A          6.7640    -5.7440    -3.5090 c6         1 QWV       0.139300
     26 O3A          7.2030    -5.8890    -4.8390 oh         1 QWV      -0.672000
     27 C4A          5.2970    -6.1680    -3.4580 c6         1 QWV       0.149300
     28 O4A          5.1080    -7.4700    -3.9540 oh         1 QWV      -0.712000
     29 C5M          4.8290    -6.1170    -2.0110 c6         1 QWV       0.169300
     30 O6A          5.6450    -6.9170    -1.1750 os         1 QWV      -0.452000
     31 CAA          4.2150    -3.0800     0.7340 c          1 QWV       0.603100
     32 OAA          3.9580    -3.4250     1.8780 o          1 QWV      -0.605100
     33 CAB          3.1500    -2.6220    -0.2430 c3         1 QWV      -0.156400
     34 CAC          1.7940    -2.3880     0.4010 c3         1 QWV      -0.068400
     35 CAD          0.7330    -1.9460    -0.5990 c3         1 QWV      -0.077400
     36 CAE         -0.6420    -1.8280     0.0440 c3         1 QWV      -0.076400
     37 CAF         -1.7290    -1.3330    -0.9020 c3         1 QWV      -0.073400
     38 CAG         -3.0930    -1.2460    -0.2290 c3         1 QWV      -0.075400
     39 CAH         -4.1910    -0.6830    -1.1230 c3         1 QWV      -0.072400
     40 CAI         -5.5330    -0.5890    -0.4080 c3         1 QWV      -0.075400
     41 CAJ         -6.6300     0.0820    -1.2240 c3         1 QWV      -0.073400
     42 CAK         -7.9400     0.2040    -0.4550 c3         1 QWV      -0.075400
     43 CAL         -9.0390     0.9350    -1.2140 c3         1 QWV      -0.073400
     44 CAM        -10.3200     1.0810    -0.4020 c3         1 QWV      -0.075400
     45 CAN        -11.4250     1.8350    -1.1300 c3         1 QWV      -0.073400
     46 CAO        -12.6870     1.9960    -0.2920 c3         1 QWV      -0.074400
     47 CAP        -13.7970     2.7580    -1.0040 c3         1 QWV      -0.074400
     48 CAQ        -15.0490     2.9270    -0.1520 c3         1 QWV      -0.074400
     49 CAR        -16.1610     3.6940    -0.8560 c3         1 QWV      -0.074400
     50 CAS        -17.4070     3.8690     0.0030 c3         1 QWV      -0.074400
     51 CAT        -18.5190     4.6390    -0.6970 c3         1 QWV      -0.074400
     52 CAU        -19.7620     4.8200     0.1650 c3         1 QWV      -0.074400
     53 CAV        -20.8720     5.5950    -0.5340 c3         1 QWV      -0.074400
     54 CAW        -22.1140     5.7800     0.3290 c3         1 QWV      -0.074400
     55 CAX        -23.2210     6.5580    -0.3710 c3         1 QWV      -0.075400
     56 CAY        -24.4640     6.7470     0.4890 c3         1 QWV      -0.075400
     57 CAZ        -25.5620     7.5260    -0.2230 c3         1 QWV      -0.088100
     58 CCI          1.7490    -6.4980    -0.1670 c          1 QWV       0.592100
     59 CCL         -0.1350    -5.5510     3.0530 ca         1 QWV      -0.083300
     60 CCM         -0.2550    -6.5540     4.0140 ca         1 QWV      -0.103500
     61 CCN         -0.3890    -6.2390     5.3590 ca         1 QWV      -0.108500
     62 CCO         -0.4070    -4.9110     5.7670 ca         1 QWV      -0.109000
     63 CCP         -0.2920    -3.9030     4.8190 ca         1 QWV      -0.108500
     64 CCQ         -0.1570    -4.2240     3.4750 ca         1 QWV      -0.103500
     65 C6C          3.4020    -6.5850    -1.8540 c3         1 QWV       0.173600
     66 O6C          3.0170    -6.2980    -0.5070 os         1 QWV      -0.445100
     67 OCI          0.9060    -6.8740    -0.9420 o          1 QWV      -0.493000
     68 CCJ          1.5120    -6.2140     1.2920 c3         1 QWV      -0.144400
     69 CCK          0.0500    -5.8980     1.6020 c3         1 QWV      -0.021100
     70 H1           7.6600    -5.4240     1.3340 h1         1 QWV       0.052200
     71 H2           5.9330    -5.5790     0.9940 h1         1 QWV       0.052200
     72 H3           6.4220    -3.4420     2.0290 h1         1 QWV       0.081700
     73 H4           5.5920    -2.8350    -0.7330 hn         1 QWV       0.313500
     74 H5           8.0230    -2.7610    -0.4730 h1         1 QWV       0.084700
     75 H6           8.9640    -3.0750     2.1530 ho         1 QWV       0.437000
     76 H7           6.7370    -0.8640     0.4750 hc         1 QWV       0.046700
     77 H8           7.4370    -1.1500     2.0510 hc         1 QWV       0.046700
     78 H9           9.7150    -0.6540     1.1230 hc         1 QWV       0.045200
     79 H10          9.0210    -0.4360    -0.4700 hc         1 QWV       0.045200
     80 H11          7.6420     1.4660     0.3910 hc         1 QWV       0.036700
     81 H12          8.3310     1.2460     1.9840 hc         1 QWV       0.036700
     82 H13         10.6110     1.7220     1.0610 hc         1 QWV       0.038200
     83 H14          9.9200     1.9410    -0.5320 hc         1 QWV       0.038200
     84 H15          8.5370     3.8450     0.3300 hc         1 QWV       0.037200
     85 H16          9.2340     3.6280     1.9200 hc         1 QWV       0.037200
     86 H17         11.5090     4.1040     0.9860 hc         1 QWV       0.037700
     87 H18         10.8110     4.3210    -0.6040 hc         1 QWV       0.037700
     88 H19          9.4330     6.2270     0.2610 hc         1 QWV       0.037200
     89 H20         10.1330     6.0100     1.8500 hc         1 QWV       0.037200
     90 H21         12.4070     6.4840     0.9120 hc         1 QWV       0.036700
     91 H22         11.7070     6.7020    -0.6760 hc         1 QWV       0.036700
     92 H23         10.3330     8.6100     0.1890 hc         1 QWV       0.037200
     93 H24         11.0310     8.3900     1.7790 hc         1 QWV       0.037200
     94 H25         13.3060     8.8620     0.8440 hc         1 QWV       0.036700
     95 H26         12.6080     9.0830    -0.7450 hc         1 QWV       0.036700
     96 H27         11.2360    10.9910     0.1210 hc         1 QWV       0.036700
     97 H28         11.9310    10.7680     1.7110 hc         1 QWV       0.036700
     98 H29         14.2080    11.2390     0.7820 hc         1 QWV       0.036700
     99 H30         13.5140    11.4640    -0.8080 hc         1 QWV       0.036700
    100 H31         12.1420    13.3720     0.0580 hc         1 QWV       0.036700
    101 H32         12.8310    13.1460     1.6500 hc         1 QWV       0.036700
    102 H33         15.1100    13.6190     0.7300 hc         1 QWV       0.036700
    103 H34         14.4210    13.8450    -0.8610 hc         1 QWV       0.036700
    104 H35         13.0620    15.7810    -0.0100 hc         1 QWV       0.031367
    105 H36         13.7470    15.5530     1.5960 hc         1 QWV       0.031367
    106 H37         14.7820    16.0490     0.2590 hc         1 QWV       0.031367
    107 H38          7.4850    -7.2420    -0.4760 h2         1 QWV       0.072700
    108 H39          7.5240    -7.6380    -2.8630 h1         1 QWV       0.064700
    109 H40          9.5000    -6.8430    -2.3080 ho         1 QWV       0.512000
    110 H41          6.8190    -4.6910    -3.1960 h1         1 QWV       0.061700
    111 H42          8.1620    -5.7940    -4.8540 ho         1 QWV       0.469000
    112 H43          4.7050    -5.4360    -4.0290 h1         1 QWV       0.050700
    113 H44          5.5460    -7.5270    -4.8110 ho         1 QWV       0.524000
    114 H45          4.8780    -5.0660    -1.6990 h1         1 QWV       0.051700
    115 H46          3.4940    -1.7150    -0.7510 hc         1 QWV       0.055700
    116 H47          3.0590    -3.3820    -1.0270 hc         1 QWV       0.055700
    117 H48          1.4630    -3.3070     0.8890 hc         1 QWV       0.053700
    118 H49          1.8800    -1.6410     1.1950 hc         1 QWV       0.053700
    119 H50          1.0190    -0.9850    -1.0380 hc         1 QWV       0.037700
    120 H51          0.6860    -2.6600    -1.4290 hc         1 QWV       0.037700
    121 H52         -0.9360    -2.8070     0.4430 hc         1 QWV       0.039200
    122 H53         -0.5840    -1.1560     0.9070 hc         1 QWV       0.039200
    123 H54         -1.4490    -0.3480    -1.2890 hc         1 QWV       0.038200
    124 H55         -1.7890    -1.9980    -1.7700 hc         1 QWV       0.038200
    125 H56         -3.3870    -2.2400     0.1260 hc         1 QWV       0.038200
    126 H57         -3.0120    -0.6190     0.6660 hc         1 QWV       0.038200
    127 H58         -3.8950     0.3120    -1.4720 hc         1 QWV       0.037200
    128 H59         -4.2920    -1.3030    -2.0210 hc         1 QWV       0.037200
    129 H60         -5.8610    -1.5920    -0.1130 hc         1 QWV       0.037200
    130 H61         -5.3980    -0.0320     0.5270 hc         1 QWV       0.037200
    131 H62         -6.2940     1.0800    -1.5280 hc         1 QWV       0.037200
    132 H63         -6.7990    -0.4760    -2.1520 hc         1 QWV       0.037200
    133 H64         -8.2930    -0.7950    -0.1760 hc         1 QWV       0.036700
    134 H65         -7.7490     0.7270     0.4900 hc         1 QWV       0.036700
    135 H66         -8.6790     1.9280    -1.5060 hc         1 QWV       0.037200
    136 H67         -9.2570     0.4060    -2.1480 hc         1 QWV       0.037200
    137 H68        -10.6850     0.0880    -0.1170 hc         1 QWV       0.037200
    138 H69        -10.0910     1.5970     0.5380 hc         1 QWV       0.037200
    139 H70        -11.0560     2.8250    -1.4240 hc         1 QWV       0.037200
    140 H71        -11.6700     1.3150    -2.0620 hc         1 QWV       0.037200
    141 H72        -13.0570     1.0070     0.0010 hc         1 QWV       0.036700
    142 H73        -12.4360     2.5110     0.6420 hc         1 QWV       0.036700
    143 H74        -13.4250     3.7450    -1.3020 hc         1 QWV       0.037200
    144 H75        -14.0570     2.2400    -1.9330 hc         1 QWV       0.037200
    145 H76        -15.4210     1.9400     0.1460 hc         1 QWV       0.037200
    146 H77        -14.7860     3.4430     0.7780 hc         1 QWV       0.037200
    147 H78        -15.7870     4.6780    -1.1580 hc         1 QWV       0.036700
    148 H79        -16.4290     3.1750    -1.7830 hc         1 QWV       0.036700
    149 H80        -17.7820     2.8840     0.3040 hc         1 QWV       0.036700
    150 H81        -17.1380     4.3850     0.9310 hc         1 QWV       0.036700
    151 H82        -18.1430     5.6220    -1.0020 hc         1 QWV       0.036700
    152 H83        -18.7920     4.1210    -1.6240 hc         1 QWV       0.036700
    153 H84        -20.1410     3.8370     0.4680 hc         1 QWV       0.036700
    154 H85        -19.4890     5.3360     1.0920 hc         1 QWV       0.036700
    155 H86        -20.4920     6.5760    -0.8390 hc         1 QWV       0.036700
    156 H87        -21.1470     5.0770    -1.4600 hc         1 QWV       0.036700
    157 H88        -22.4960     4.7990     0.6320 hc         1 QWV       0.036700
    158 H89        -21.8380     6.2960     1.2550 hc         1 QWV       0.036700
    159 H90        -22.8390     7.5400    -0.6750 hc         1 QWV       0.036700
    160 H91        -23.4970     6.0420    -1.2980 hc         1 QWV       0.036700
    161 H92        -24.8470     5.7670     0.7920 hc         1 QWV       0.036700
    162 H93        -24.1880     7.2630     1.4150 hc         1 QWV       0.036700
    163 H94        -25.8680     7.0200    -1.1400 hc         1 QWV       0.031367
    164 H95        -26.4470     7.6410     0.4040 hc         1 QWV       0.031367
    165 H96        -25.2190     8.5250    -0.4990 hc         1 QWV       0.031367
    166 H97         -0.2440    -7.5930     3.7050 ha         1 QWV       0.110500
    167 H98         -0.4830    -7.0320     6.0900 ha         1 QWV       0.111500
    168 H99         -0.5140    -4.6650     6.8150 ha         1 QWV       0.111000
    169 H100        -0.3120    -2.8650     5.1240 ha         1 QWV       0.111500
    170 H101        -0.0750    -3.4280     2.7440 ha         1 QWV       0.110500
    171 H102         2.7640    -6.0450    -2.5570 h1         1 QWV       0.068200
    172 H103         3.3030    -7.6540    -2.0520 h1         1 QWV       0.068200
    173 H104         1.8290    -7.1010     1.8530 hc         1 QWV       0.085200
    174 H105         2.1680    -5.4060     1.6240 hc         1 QWV       0.085200
    175 H106        -0.5750    -6.7530     1.3380 hc         1 QWV       0.058200
    176 H107        -0.2850    -5.0640     0.9800 hc         1 QWV       0.058200
@<TRIPOS>BOND
     1     1     2 1   
     2     1    22 1   
     3     1    70 1   
     4     1    71 1   
     5     2     3 1   
     6     2     4 1   
     7     2    72 1   
     8     3    31 1   
     9     3    73 1   
    10     4     5 1   
    11     4     6 1   
    12     4    74 1   
    13     5    75 1   
    14     6     7 1   
    15     6    76 1   
    16     6    77 1   
    17     7     8 1   
    18     7    78 1   
    19     7    79 1   
    20     8     9 1   
    21     8    80 1   
    22     8    81 1   
    23     9    10 1   
    24     9    82 1   
    25     9    83 1   
    26    10    11 1   
    27    10    84 1   
    28    10    85 1   
    29    11    12 1   
    30    11    86 1   
    31    11    87 1   
    32    12    13 1   
    33    12    88 1   
    34    12    89 1   
    35    13    14 1   
    36    13    90 1   
    37    13    91 1   
    38    14    15 1   
    39    14    92 1   
    40    14    93 1   
    41    15    16 1   
    42    15    94 1   
    43    15    95 1   
    44    16    17 1   
    45    16    96 1   
    46    16    97 1   
    47    17    18 1   
    48    17    98 1   
    49    17    99 1   
    50    18    19 1   
    51    18   100 1   
    52    18   101 1   
    53    19    20 1   
    54    19   102 1   
    55    19   103 1   
    56    20   104 1   
    57    20   105 1   
    58    20   106 1   
    59    21    22 1   
    60    21    23 1   
    61    21    30 1   
    62    21   107 1   
    63    23    24 1   
    64    23    25 1   
    65    23   108 1   
    66    24   109 1   
    67    25    26 1   
    68    25    27 1   
    69    25   110 1   
    70    26   111 1   
    71    27    28 1   
    72    27    29 1   
    73    27   112 1   
    74    28   113 1   
    75    29    30 1   
    76    29    65 1   
    77    29   114 1   
    78    31    32 2   
    79    31    33 1   
    80    33    34 1   
    81    33   115 1   
    82    33   116 1   
    83    34    35 1   
    84    34   117 1   
    85    34   118 1   
    86    35    36 1   
    87    35   119 1   
    88    35   120 1   
    89    36    37 1   
    90    36   121 1   
    91    36   122 1   
    92    37    38 1   
    93    37   123 1   
    94    37   124 1   
    95    38    39 1   
    96    38   125 1   
    97    38   126 1   
    98    39    40 1   
    99    39   127 1   
   100    39   128 1   
   101    40    41 1   
   102    40   129 1   
   103    40   130 1   
   104    41    42 1   
   105    41   131 1   
   106    41   132 1   
   107    42    43 1   
   108    42   133 1   
   109    42   134 1   
   110    43    44 1   
   111    43   135 1   
   112    43   136 1   
   113    44    45 1   
   114    44   137 1   
   115    44   138 1   
   116    45    46 1   
   117    45   139 1   
   118    45   140 1   
   119    46    47 1   
   120    46   141 1   
   121    46   142 1   
   122    47    48 1   
   123    47   143 1   
   124    47   144 1   
   125    48    49 1   
   126    48   145 1   
   127    48   146 1   
   128    49    50 1   
   129    49   147 1   
   130    49   148 1   
   131    50    51 1   
   132    50   149 1   
   133    50   150 1   
   134    51    52 1   
   135    51   151 1   
   136    51   152 1   
   137    52    53 1   
   138    52   153 1   
   139    52   154 1   
   140    53    54 1   
   141    53   155 1   
   142    53   156 1   
   143    54    55 1   
   144    54   157 1   
   145    54   158 1   
   146    55    56 1   
   147    55   159 1   
   148    55   160 1   
   149    56    57 1   
   150    56   161 1   
   151    56   162 1   
   152    57   163 1   
   153    57   164 1   
   154    57   165 1   
   155    58    66 1   
   156    58    67 2   
   157    58    68 1   
   158    59    60 ar  
   159    59    64 ar  
   160    59    69 1   
   161    60    61 ar  
   162    60   166 1   
   163    61    62 ar  
   164    61   167 1   
   165    62    63 ar  
   166    62   168 1   
   167    63    64 ar  
   168    63   169 1   
   169    64   170 1   
   170    65    66 1   
   171    65   171 1   
   172    65   172 1   
   173    68    69 1   
   174    68   173 1   
   175    68   174 1   
   176    69   175 1   
   177    69   176 1   
@<TRIPOS>SUBSTRUCTURE
     1 QWV         1 TEMP              0 ****  ****    0 ROOT
