@<TRIPOS>MOLECULE
QWW
   13    14     1     0     0
SMALL
No Charge or Current Charge


@<TRIPOS>ATOM
      1 C04         -2.2570   -19.6860     9.2220 ca         1 QWW       0.419000
      2 C06         -0.1560   -19.1120     9.9730 ca         1 QWW       0.408200
      3 C08         -0.6210   -18.9320    11.3030 ca         1 QWW      -0.020900
      4 C10         -1.9890   -19.1510    11.5680 ca         1 QWW       0.024100
      5 C12         -2.7750   -19.5330    10.4750 ca         1 QWW      -0.113200
      6 N01         -4.1100   -19.8150    10.4020 na         1 QWW      -0.044400
      7 N02         -4.4100   -20.1440     9.0890 nc         1 QWW      -0.134400
      8 N03         -3.2880   -20.0670     8.3710 nd         1 QWW      -0.265000
      9 N05         -0.9560   -19.4840     8.9400 nb         1 QWW      -0.548000
     10 Br3          1.6870   -18.8370     9.5170 br         1 QWW      -0.100200
     11 Br2          0.5790   -18.4040    12.7100 br         1 QWW      -0.003100
     12 Br1         -2.7520   -18.9450    13.3170 br         1 QWW      -0.021100
     13 H011        -4.8080   -19.8030    11.1400 hn         1 QWW       0.399000
@<TRIPOS>BOND
     1     1     5 ar  
     2     1     8 1   
     3     1     9 ar  
     4     2     3 ar  
     5     2     9 ar  
     6     2    10 1   
     7     3     4 ar  
     8     3    11 1   
     9     4     5 ar  
    10     4    12 1   
    11     5     6 1   
    12     6     7 1   
    13     6    13 1   
    14     7     8 2   
@<TRIPOS>SUBSTRUCTURE
     1 QWW         1 TEMP              0 ****  ****    0 ROOT
