@<TRIPOS>MOLECULE
QWW
   13    14     1     0     0
SMALL
abcg2


@<TRIPOS>ATOM
      1 C04         -2.2490   -19.6740     9.2700 ca         1 QWW       0.419000
      2 C06         -0.2020   -19.1250     9.9550 ca         1 QWW       0.408200
      3 C08         -0.6380   -18.9370    11.3000 ca         1 QWW      -0.020900
      4 C10         -1.9730   -19.1410    11.6040 ca         1 QWW       0.024100
      5 C12         -2.7880   -19.5220    10.5430 ca         1 QWW      -0.113200
      6 N01         -4.0880   -19.8170    10.3700 na         1 QWW      -0.044400
      7 N02         -4.3250   -20.1240     9.1030 nc         1 QWW      -0.134400
      8 N03         -3.2460   -20.0470     8.4240 nd         1 QWW      -0.265000
      9 N05         -0.9690   -19.4790     8.9700 nb         1 QWW      -0.548000
     10 BR3          1.6080   -18.8530     9.5160 br         1 QWW      -0.100200
     11 BR2          0.5550   -18.4240    12.6320 br         1 QWW      -0.003100
     12 BR1         -2.6960   -18.9360    13.3000 br         1 QWW      -0.021100
     13 H011        -4.8460   -19.8330    11.0390 hn         1 QWW       0.399000
@<TRIPOS>BOND
     1     1     5 ar  
     2     1     8 1   
     3     1     9 ar  
     4     2     3 ar  
     5     2     9 ar  
     6     2    10 1   
     7     3     4 ar  
     8     3    11 1   
     9     4     5 ar  
    10     4    12 1   
    11     5     6 1   
    12     6     7 1   
    13     6    13 1   
    14     7     8 2   
@<TRIPOS>SUBSTRUCTURE
     1 QWW         1 TEMP              0 ****  ****    0 ROOT
