@<TRIPOS>MOLECULE
QWX
   51    54     1     0     0
SMALL
No Charge or Current Charge


@<TRIPOS>ATOM
      1 C18        -45.4770   -28.4540     0.9000 ca         1 QWX      -0.064300
      2 C16        -45.5950   -26.3820    -0.3550 ca         1 QWX      -0.103000
      3 C17        -46.2030   -27.5760     0.0790 ca         1 QWX      -0.112000
      4 C15        -44.2740   -26.0780     0.0350 ca         1 QWX      -0.207000
      5 C13        -43.5600   -26.9680     0.8580 ca         1 QWX       0.116100
      6 C12        -44.1790   -28.1580     1.2800 ca         1 QWX      -0.090300
      7 C11        -43.5870   -29.2290     2.1620 c5         1 QWX      -0.014100
      8 C20        -47.9380   -29.1310     5.2390 ca         1 QWX       0.007000
      9 C02        -50.1120   -29.4470     4.2190 ca         1 QWX       0.382000
     10 C03        -48.7120   -29.3360     4.0710 ca         1 QWX      -0.235600
     11 C06        -45.9630   -29.7680     1.4680 c5         1 QWX       0.166000
     12 C07        -44.5620   -30.4290     1.8330 c5         1 QWX      -0.204700
     13 C08        -44.5990   -31.4680     2.9890 c          1 QWX       0.717000
     14 C21        -48.5510   -29.0440     6.4980 ca         1 QWX      -0.241000
     15 C22        -49.9400   -29.1540     6.6370 ca         1 QWX       0.043000
     16 C26        -53.0560   -28.9410    10.5550 cx         1 QWX       0.066700
     17 C27        -53.4800   -30.2280    11.2190 cx         1 QWX      -0.136400
     18 C28        -52.9440   -29.0890    12.0530 cx         1 QWX      -0.136400
     19 C30        -50.7140   -29.3580     5.4800 ca         1 QWX      -0.247000
     20 N05        -46.6860   -29.6320     2.7300 ns         1 QWX      -0.475900
     21 N23        -50.4810   -29.0560     7.9460 ns         1 QWX      -0.161000
     22 N25        -51.8380   -28.9550     9.7920 ns         1 QWX      -0.510900
     23 O09        -44.8710   -31.1060     4.1260 o          1 QWX      -0.725500
     24 O10        -44.3090   -32.6260     2.7340 o          1 QWX      -0.725500
     25 O14        -42.2840   -26.6700     1.2370 oh         1 QWX      -0.540100
     26 O29        -52.7900   -29.1680     7.7350 o          1 QWX      -0.621100
     27 H161       -46.1470   -25.6930    -0.9910 ha         1 QWX       0.096000
     28 H171       -47.2230   -27.8130    -0.2160 ha         1 QWX       0.132000
     29 H151       -43.8150   -25.1530    -0.3040 ha         1 QWX       0.093000
     30 H112       -43.6210   -28.9310     3.2160 hc         1 QWX       0.061200
     31 H111       -42.5450   -29.4650     1.9170 hc         1 QWX       0.061200
     32 H201       -46.8570   -29.0150     5.1920 ha         1 QWX       0.134000
     33 H061       -46.5090   -30.3670     0.7250 h1         1 QWX       0.069700
     34 H071       -44.2060   -30.9470     0.9350 hc         1 QWX       0.051700
     35 H211       -47.9310   -28.8820     7.3780 ha         1 QWX       0.104000
     36 H261       -53.8320   -28.2830    10.1610 h1         1 QWX       0.081700
     37 H272       -54.5450   -30.4390    11.2720 hc         1 QWX       0.076950
     38 H271       -52.8470   -31.1030    11.0870 hc         1 QWX       0.076950
     39 H282       -53.6500   -28.5350    12.6670 hc         1 QWX       0.076950
     40 H281       -51.9530   -29.2010    12.4860 hc         1 QWX       0.076950
     41 H301       -51.7910   -29.4580     5.5460 ha         1 QWX       0.140000
     42 H011       -51.9100   -29.4170     3.2250 hn         1 QWX       0.480000
     43 H012       -50.4860   -29.5320     2.2340 hn         1 QWX       0.480000
     44 H051       -46.2570   -29.8590     3.6210 hn         1 QWX       0.379500
     45 H231       -49.7770   -28.9580     8.6650 hn         1 QWX       0.141000
     46 H251       -50.9530   -28.8720    10.2770 hn         1 QWX       0.309500
     47 H141       -42.0420   -25.8060     0.8420 ho         1 QWX       0.443000
     48 C04        -48.0460   -29.4140     2.7110 c          1 QWX       0.622700
     49 O19        -48.6560   -29.2660     1.6570 o          1 QWX      -0.699100
     50 C24        -51.7820   -29.0700     8.4220 c          1 QWX       0.660100
     51 N01        -50.9260   -29.6610     3.1490 nv         1 QWX      -1.095000
@<TRIPOS>BOND
     1     1     3 ar  
     2     1     6 ar  
     3     1    11 1   
     4     2     3 ar  
     5     2     4 ar  
     6     2    27 1   
     7     3    28 1   
     8     4     5 ar  
     9     4    29 1   
    10     5     6 ar  
    11     5    25 1   
    12     6     7 1   
    13     7    12 1   
    14     7    30 1   
    15     7    31 1   
    16     8    10 ar  
    17     8    14 ar  
    18     8    32 1   
    19     9    10 ar  
    20     9    19 ar  
    21     9    51 1   
    22    10    48 1   
    23    11    12 1   
    24    11    20 1   
    25    11    33 1   
    26    12    13 1   
    27    12    34 1   
    28    13    23 1   
    29    13    24 1   
    30    14    15 ar  
    31    14    35 1   
    32    15    19 ar  
    33    15    21 1   
    34    16    17 1   
    35    16    18 1   
    36    16    22 1   
    37    16    36 1   
    38    17    18 1   
    39    17    37 1   
    40    17    38 1   
    41    18    39 1   
    42    18    40 1   
    43    19    41 1   
    44    20    44 1   
    45    20    48 1   
    46    21    45 1   
    47    21    50 1   
    48    22    46 1   
    49    22    50 1   
    50    25    47 1   
    51    26    50 2   
    52    42    51 1   
    53    43    51 1   
    54    48    49 2   
@<TRIPOS>SUBSTRUCTURE
     1 QWX         1 TEMP              0 ****  ****    0 ROOT
