@<TRIPOS>MOLECULE
QWX
   51    54     1     0     0
SMALL
abcg2


@<TRIPOS>ATOM
      1 C18        -45.5430   -28.4590     0.9470 ca         1 QWX      -0.064300
      2 C16        -45.7390   -26.3660    -0.1870 ca         1 QWX      -0.103000
      3 C17        -46.3230   -27.5610     0.2290 ca         1 QWX      -0.112000
      4 C15        -44.4110   -26.0760     0.1150 ca         1 QWX      -0.207000
      5 C13        -43.6420   -26.9860     0.8410 ca         1 QWX       0.116100
      6 C12        -44.2120   -28.1860     1.2520 ca         1 QWX      -0.090300
      7 C11        -43.5860   -29.3100     2.0310 c5         1 QWX      -0.014100
      8 C20        -47.8910   -28.9560     5.2800 ca         1 QWX       0.007000
      9 C02        -50.0460   -29.4910     4.3330 ca         1 QWX       0.382000
     10 C03        -48.6540   -29.2910     4.1520 ca         1 QWX      -0.235600
     11 C06        -45.9500   -29.7960     1.5430 c5         1 QWX       0.166000
     12 C07        -44.5750   -30.4780     1.8120 c5         1 QWX      -0.204700
     13 C08        -44.5800   -31.5270     2.9390 c          1 QWX       0.717000
     14 C21        -48.4410   -28.8320     6.5360 ca         1 QWX      -0.241000
     15 C22        -49.8200   -29.0490     6.7150 ca         1 QWX       0.043000
     16 C26        -53.0010   -28.8610    10.4680 cx         1 QWX       0.066700
     17 C27        -53.6280   -30.1830    10.8080 cx         1 QWX      -0.136400
     18 C28        -53.0350   -29.3240    11.8930 cx         1 QWX      -0.136400
     19 C30        -50.6050   -29.3740     5.6160 ca         1 QWX      -0.247000
     20 N05        -46.6990   -29.6240     2.7840 ns         1 QWX      -0.475900
     21 N23        -50.3100   -28.9110     8.0130 ns         1 QWX      -0.161000
     22 N25        -51.7260   -28.8420     9.8180 ns         1 QWX      -0.510900
     23 O09        -44.7790   -31.0960     4.1130 o          1 QWX      -0.725500
     24 O10        -44.3940   -32.7250     2.6210 o          1 QWX      -0.725500
     25 O14        -42.3340   -26.7490     1.1680 oh         1 QWX      -0.540100
     26 O29        -52.5610   -29.3310     7.7570 o          1 QWX      -0.621100
     27 H161       -46.3180   -25.6490    -0.7560 ha         1 QWX       0.096000
     28 H171       -47.3560   -27.7840     0.0030 ha         1 QWX       0.132000
     29 H151       -43.9630   -25.1440    -0.2140 ha         1 QWX       0.093000
     30 H112       -43.5160   -29.0580     3.0930 hc         1 QWX       0.061200
     31 H111       -42.5810   -29.5580     1.6890 hc         1 QWX       0.061200
     32 H201       -46.8330   -28.7590     5.1660 ha         1 QWX       0.134000
     33 H061       -46.5560   -30.3830     0.8530 h1         1 QWX       0.069700
     34 H071       -44.3030   -30.9820     0.8840 hc         1 QWX       0.051700
     35 H211       -47.8240   -28.5580     7.3830 ha         1 QWX       0.104000
     36 H261       -53.6730   -28.0550    10.1910 h1         1 QWX       0.081700
     37 H272       -54.7050   -30.2600    10.7390 hc         1 QWX       0.076950
     38 H271       -53.0810   -31.0700    10.5170 hc         1 QWX       0.076950
     39 H282       -53.7020   -28.8100    12.5710 hc         1 QWX       0.076950
     40 H281       -52.0970   -29.6440    12.3290 hc         1 QWX       0.076950
     41 H301       -51.6630   -29.5390     5.7410 ha         1 QWX       0.140000
     42 H011       -51.8540   -29.7270     3.4300 hn         1 QWX       0.480000
     43 H012       -50.5040   -29.6450     2.3720 hn         1 QWX       0.480000
     44 H051       -46.2010   -29.9270     3.6180 hn         1 QWX       0.379500
     45 H231       -49.6090   -28.6860     8.7030 hn         1 QWX       0.141000
     46 H251       -50.9450   -28.4660    10.3320 hn         1 QWX       0.309500
     47 H141       -42.0590   -25.8920     0.8150 ho         1 QWX       0.443000
     48 C04        -48.0270   -29.4070     2.8110 c          1 QWX       0.622700
     49 O19        -48.6860   -29.3050     1.7580 o          1 QWX      -0.699100
     50 C24        -51.6050   -29.0450     8.4740 c          1 QWX       0.660100
     51 N01        -50.8650   -29.8570     3.2920 nv         1 QWX      -1.095000
@<TRIPOS>BOND
     1     1     3 ar  
     2     1     6 ar  
     3     1    11 1   
     4     2     3 ar  
     5     2     4 ar  
     6     2    27 1   
     7     3    28 1   
     8     4     5 ar  
     9     4    29 1   
    10     5     6 ar  
    11     5    25 1   
    12     6     7 1   
    13     7    12 1   
    14     7    30 1   
    15     7    31 1   
    16     8    10 ar  
    17     8    14 ar  
    18     8    32 1   
    19     9    10 ar  
    20     9    19 ar  
    21     9    51 1   
    22    10    48 1   
    23    11    12 1   
    24    11    20 1   
    25    11    33 1   
    26    12    13 1   
    27    12    34 1   
    28    13    23 1   
    29    13    24 1   
    30    14    15 ar  
    31    14    35 1   
    32    15    19 ar  
    33    15    21 1   
    34    16    17 1   
    35    16    18 1   
    36    16    22 1   
    37    16    36 1   
    38    17    18 1   
    39    17    37 1   
    40    17    38 1   
    41    18    39 1   
    42    18    40 1   
    43    19    41 1   
    44    20    44 1   
    45    20    48 1   
    46    21    45 1   
    47    21    50 1   
    48    22    46 1   
    49    22    50 1   
    50    25    47 1   
    51    26    50 2   
    52    42    51 1   
    53    43    51 1   
    54    48    49 2   
@<TRIPOS>SUBSTRUCTURE
     1 QWX         1 TEMP              0 ****  ****    0 ROOT
