@<TRIPOS>MOLECULE
QWY
   48    52     1     0     0
SMALL
abcg2


@<TRIPOS>ATOM
      1 CAD         17.3450     3.2640    39.1070 ca         1 QWY      -0.082500
      2 CAC         17.3790     3.6050    40.4480 ca         1 QWY      -0.115500
      3 CAT         17.2350     4.9310    40.8400 ca         1 QWY      -0.098000
      4 CAU         17.0550     5.9150    39.8780 ca         1 QWY      -0.115500
      5 CAV         17.0210     5.5780    38.5340 ca         1 QWY      -0.082500
      6 CAE         17.1660     4.2500    38.1330 ca         1 QWY      -0.129500
      7 CAF         17.1320     3.8760    36.7210 cc         1 QWY       0.412900
      8 SAW         16.9620     5.0390    35.4390 ss         1 QWY      -0.166800
      9 NAG         17.2240     2.6590    36.2940 nd         1 QWY      -0.305000
     10 NAH         17.1690     2.5450    34.9560 nd         1 QWY      -0.394000
     11 CAI         17.0320     3.6920    34.3650 cc         1 QWY       0.510300
     12 NAJ         16.9520     3.7900    33.0070 ns         1 QWY      -0.461400
     13 CAK         16.7960     4.9810    32.3370 c          1 QWY       0.671300
     14 OAA         16.7360     6.0280    32.9780 o          1 QWY      -0.626100
     15 CAL         16.7070     4.9310    30.9050 cc         1 QWY      -0.293600
     16 SAX         16.7760     3.4300    29.9830 ss         1 QWY      -0.126900
     17 CAY         16.5600     4.3090    28.5030 ca         1 QWY       0.444300
     18 NAZ         16.5070     3.7140    27.3260 nb         1 QWY      -0.655000
     19 CBA         16.3420     4.4790    26.2550 ca         1 QWY       0.400300
     20 CBB         16.2870     3.7730    24.9330 c3         1 QWY      -0.135700
     21 CBC         17.4530     4.1120    23.9960 c3         1 QWY      -0.068400
     22 CAS         17.3080     5.4360    23.2570 c3         1 QWY      -0.075400
     23 CAR         17.2600     6.6770    24.1400 c3         1 QWY      -0.070400
     24 CAQ         16.0650     6.7280    25.0980 c3         1 QWY      -0.023100
     25 CAP         16.2280     5.8870    26.3310 ca         1 QWY      -0.136300
     26 CAO         16.2860     6.4790    27.5770 ca         1 QWY      -0.023000
     27 CAN         16.4530     5.6830    28.7090 ca         1 QWY      -0.190800
     28 CAM         16.5350     6.0500    30.1010 cd         1 QWY       0.312800
     29 NAB         16.4670     7.3230    30.5040 nv         1 QWY      -0.940000
     30 H1          17.4590     2.2300    38.8100 ha         1 QWY       0.125500
     31 H2          17.5180     2.8320    41.1920 ha         1 QWY       0.115000
     32 H3          17.2610     5.1930    41.8890 ha         1 QWY       0.114000
     33 H4          16.9410     6.9500    40.1720 ha         1 QWY       0.115000
     34 H5          16.8780     6.3660    37.8030 ha         1 QWY       0.125500
     35 H6          17.0040     2.9080    32.5160 hn         1 QWY       0.349500
     36 H7          15.3420     4.0100    24.4320 hc         1 QWY       0.063700
     37 H8          16.2770     2.7010    25.1340 hc         1 QWY       0.063700
     38 H9          17.5280     3.3120    23.2560 hc         1 QWY       0.047700
     39 H10         18.3920     4.0950    24.5580 hc         1 QWY       0.047700
     40 H11         18.1390     5.5370    22.5540 hc         1 QWY       0.040200
     41 H12         16.3970     5.4020    22.6490 hc         1 QWY       0.040200
     42 H13         18.1880     6.7670    24.7120 hc         1 QWY       0.044200
     43 H14         17.2110     7.5570    23.4930 hc         1 QWY       0.044200
     44 H15         15.9030     7.7610    25.4100 hc         1 QWY       0.047700
     45 H16         15.1580     6.4300    24.5600 hc         1 QWY       0.047700
     46 H17         16.1990     7.5570    27.6600 ha         1 QWY       0.114000
     47 H18         16.4290     7.5360    31.4860 hn         1 QWY       0.507000
     48 H19         16.1970     8.0460    29.8610 hn         1 QWY       0.507000
@<TRIPOS>BOND
     1     1     2 ar  
     2     1     6 ar  
     3     1    30 1   
     4     2     3 ar  
     5     2    31 1   
     6     3     4 ar  
     7     3    32 1   
     8     4     5 ar  
     9     4    33 1   
    10     5     6 ar  
    11     5    34 1   
    12     6     7 1   
    13     7     8 1   
    14     7     9 2   
    15     8    11 1   
    16     9    10 1   
    17    10    11 2   
    18    11    12 1   
    19    12    13 1   
    20    12    35 1   
    21    13    14 2   
    22    13    15 1   
    23    15    16 1   
    24    15    28 2   
    25    16    17 1   
    26    17    18 ar  
    27    17    27 ar  
    28    18    19 ar  
    29    19    20 1   
    30    19    25 ar  
    31    20    21 1   
    32    20    36 1   
    33    20    37 1   
    34    21    22 1   
    35    21    38 1   
    36    21    39 1   
    37    22    23 1   
    38    22    40 1   
    39    22    41 1   
    40    23    24 1   
    41    23    42 1   
    42    23    43 1   
    43    24    25 1   
    44    24    44 1   
    45    24    45 1   
    46    25    26 ar  
    47    26    27 ar  
    48    26    46 1   
    49    27    28 1   
    50    28    29 1   
    51    29    47 1   
    52    29    48 1   
@<TRIPOS>SUBSTRUCTURE
     1 QWY         1 TEMP              0 ****  ****    0 ROOT
