@<TRIPOS>MOLECULE
QWY
   48    52     1     0     0
SMALL
No Charge or Current Charge


@<TRIPOS>ATOM
      1 CAD         17.3680     3.0690    39.1190 ca         1 QWY      -0.082500
      2 CAC         17.4270     3.2570    40.5100 ca         1 QWY      -0.115500
      3 CAT         17.3100     4.5450    41.0530 ca         1 QWY      -0.098000
      4 CAU         17.1350     5.6460    40.2020 ca         1 QWY      -0.115500
      5 CAV         17.0750     5.4620    38.8090 ca         1 QWY      -0.082500
      6 CAE         17.1910     4.1690    38.2450 ca         1 QWY      -0.129500
      7 CAF         17.1300     3.9620    36.7850 cc         1 QWY       0.412900
      8 SAW         16.9150     5.2790    35.6650 ss         1 QWY      -0.166800
      9 NAG         17.2340     2.7690    36.2110 nd         1 QWY      -0.305000
     10 NAH         17.1460     2.8390    34.8330 nd         1 QWY      -0.394000
     11 CAI         16.9790     4.0790    34.4050 cc         1 QWY       0.510300
     12 NAJ         16.8760     4.3000    33.0560 ns         1 QWY      -0.461400
     13 CAK         16.7020     5.4750    32.3810 c          1 QWY       0.671300
     14 OAA         16.6070     6.5610    32.9320 o          1 QWY      -0.626100
     15 CAL         16.6390     5.2750    30.9160 cc         1 QWY      -0.293600
     16 SAX         16.7440     3.6650    30.1300 ss         1 QWY      -0.126900
     17 CAY         16.5360     4.4480    28.5430 ca         1 QWY       0.444300
     18 NAZ         16.5130     3.7530    27.3910 nb         1 QWY      -0.655000
     19 CBA         16.3570     4.4600    26.2460 ca         1 QWY       0.400300
     20 CBB         16.3400     3.6260    24.9700 c3         1 QWY      -0.135700
     21 CBC         17.5170     3.9320    24.0160 c3         1 QWY      -0.068400
     22 CAS         17.3420     5.2150    23.1730 c3         1 QWY      -0.075400
     23 CAR         17.2730     6.5330    23.9780 c3         1 QWY      -0.070400
     24 CAQ         16.0550     6.6510    24.9200 c3         1 QWY      -0.023100
     25 CAP         16.2240     5.8750    26.2240 ca         1 QWY      -0.136300
     26 CAO         16.2520     6.5730    27.4490 ca         1 QWY      -0.023000
     27 CAN         16.4110     5.8170    28.6200 ca         1 QWY      -0.190800
     28 CAM         16.4730     6.2820    29.9860 cd         1 QWY       0.312800
     29 NAB         16.3730     7.5930    30.3230 nv         1 QWY      -0.940000
     30 H1          17.4610     2.0580    38.7250 ha         1 QWY       0.125500
     31 H2          17.5630     2.4010    41.1680 ha         1 QWY       0.115000
     32 H3          17.3560     4.6900    42.1310 ha         1 QWY       0.114000
     33 H4          17.0440     6.6460    40.6210 ha         1 QWY       0.115000
     34 H5          16.9380     6.3390    38.1800 ha         1 QWY       0.125500
     35 H6          16.9360     3.4870    32.4630 hn         1 QWY       0.349500
     36 H7          15.3890     3.7680    24.4420 hc         1 QWY       0.063700
     37 H8          16.3790     2.5590    25.2230 hc         1 QWY       0.063700
     38 H9          17.6280     3.0880    23.3240 hc         1 QWY       0.047700
     39 H10         18.4510     3.9870    24.5880 hc         1 QWY       0.047700
     40 H11         18.1840     5.2840    22.4730 hc         1 QWY       0.040200
     41 H12         16.4390     5.1220    22.5560 hc         1 QWY       0.040200
     42 H13         18.1980     6.6670    24.5540 hc         1 QWY       0.044200
     43 H14         17.2330     7.3620    23.2610 hc         1 QWY       0.044200
     44 H15         15.9000     7.7150    25.1390 hc         1 QWY       0.047700
     45 H16         15.1490     6.3250    24.3940 hc         1 QWY       0.047700
     46 H17         16.1570     7.6560    27.4830 ha         1 QWY       0.114000
     47 H18         16.3180     7.8230    31.3160 hn         1 QWY       0.507000
     48 H19         15.9940     8.2700    29.6670 hn         1 QWY       0.507000
@<TRIPOS>BOND
     1     1     2 ar  
     2     1     6 ar  
     3     1    30 1   
     4     2     3 ar  
     5     2    31 1   
     6     3     4 ar  
     7     3    32 1   
     8     4     5 ar  
     9     4    33 1   
    10     5     6 ar  
    11     5    34 1   
    12     6     7 1   
    13     7     8 1   
    14     7     9 2   
    15     8    11 1   
    16     9    10 1   
    17    10    11 2   
    18    11    12 1   
    19    12    13 1   
    20    12    35 1   
    21    13    14 2   
    22    13    15 1   
    23    15    16 1   
    24    15    28 2   
    25    16    17 1   
    26    17    18 ar  
    27    17    27 ar  
    28    18    19 ar  
    29    19    20 1   
    30    19    25 ar  
    31    20    21 1   
    32    20    36 1   
    33    20    37 1   
    34    21    22 1   
    35    21    38 1   
    36    21    39 1   
    37    22    23 1   
    38    22    40 1   
    39    22    41 1   
    40    23    24 1   
    41    23    42 1   
    42    23    43 1   
    43    24    25 1   
    44    24    44 1   
    45    24    45 1   
    46    25    26 ar  
    47    26    27 ar  
    48    26    46 1   
    49    27    28 1   
    50    28    29 1   
    51    29    47 1   
    52    29    48 1   
@<TRIPOS>SUBSTRUCTURE
     1 QWY         1 TEMP              0 ****  ****    0 ROOT
