@<TRIPOS>MOLECULE
QWZ
   70    73     1     0     0
SMALL
No Charge or Current Charge


@<TRIPOS>ATOM
      1 O1          38.0640    25.5200    31.8280 os         1 QWZ      -0.350100
      2 C2          40.3920    26.1120    27.6730 ca         1 QWZ      -0.166000
      3 C3          40.5430    25.6280    28.9840 ca         1 QWZ      -0.071000
      4 C4          39.7020    24.6080    29.4700 ca         1 QWZ      -0.114300
      5 C5          39.8490    24.1180    30.9120 c3         1 QWZ      -0.055100
      6 C6          38.5500    24.1620    31.7570 c3         1 QWZ       0.170600
      7 C9          37.0730    27.6890    29.0030 ca         1 QWZ      -0.134900
      8 C11         35.2850    26.0680    29.4260 ca         1 QWZ      -0.200000
      9 C13         34.2380    23.8510    30.9760 c3         1 QWZ       0.145900
     10 C14         37.6820    28.8080    28.2030 ce         1 QWZ       0.390900
     11 C15         40.5200    31.0090    27.6910 c3         1 QWZ       0.148700
     12 C16         41.1010    31.1400    29.1280 c3         1 QWZ      -0.080400
     13 C17         41.9750    29.9670    29.6400 c3         1 QWZ      -0.067900
     14 C18         43.4630    30.0820    29.2320 c3         1 QWZ      -0.072400
     15 C19         43.7680    29.8610    27.7340 c3         1 QWZ      -0.072400
     16 C20         42.9650    30.7390    26.7450 c3         1 QWZ      -0.067900
     17 C22         38.1420    30.7590    26.8760 c          1 QWZ       0.543000
     18 C27         38.5680    24.5480    27.3110 ca         1 QWZ      -0.166000
     19 N           38.8920    29.2140    28.4020 n2         1 QWZ      -0.429300
     20 C           39.9870    27.0650    24.9570 c3         1 QWZ       0.145900
     21 C1          39.3960    25.5750    26.8310 ca         1 QWZ       0.136100
     22 C10         35.8110    27.1420    28.6880 ca         1 QWZ      -0.059000
     23 C12         36.0180    25.5040    30.4930 ca         1 QWZ       0.122100
     24 C21         41.4700    30.3530    26.6540 c3         1 QWZ      -0.080400
     25 C23         37.0200    29.7390    27.1710 c5         1 QWZ      -0.205300
     26 C26         38.7200    24.0620    28.6210 ca         1 QWZ      -0.071000
     27 C7          37.2870    26.0420    30.8110 ca         1 QWZ       0.077100
     28 C8          37.7920    27.1320    30.0850 ca         1 QWZ      -0.053000
     29 N1          39.2030    30.3260    27.6810 n          1 QWZ      -0.188800
     30 O3          38.1450    31.7230    26.1200 o          1 QWZ      -0.527000
     31 H1          41.0510    26.9060    27.3340 ha         1 QWZ       0.121000
     32 H2          41.3080    26.0600    29.6260 ha         1 QWZ       0.110500
     33 H3          40.2160    23.0850    30.9040 hc         1 QWZ       0.053200
     34 H4          40.6150    24.7010    31.4370 hc         1 QWZ       0.053200
     35 H5          37.8010    23.4830    31.3310 h1         1 QWZ       0.051700
     36 H6          38.7840    23.7990    32.7660 h1         1 QWZ       0.051700
     37 H7          34.3070    25.6860    29.1500 ha         1 QWZ       0.118000
     38 H8          34.0440    23.0400    31.6890 h1         1 QWZ       0.042367
     39 H9          33.4290    24.5870    31.0710 h1         1 QWZ       0.042367
     40 H10         34.2150    23.4270    29.9640 h1         1 QWZ       0.042367
     41 H11         40.3480    32.0400    27.3540 h1         1 QWZ       0.070700
     42 H12         41.6890    32.0640    29.1840 hc         1 QWZ       0.045700
     43 H13         40.2680    31.2900    29.8260 hc         1 QWZ       0.045700
     44 H14         41.5640    29.0050    29.3140 hc         1 QWZ       0.043200
     45 H15         41.9300    29.9650    30.7360 hc         1 QWZ       0.043200
     46 H16         44.0370    29.3470    29.8080 hc         1 QWZ       0.035700
     47 H17         43.8430    31.0670    29.5330 hc         1 QWZ       0.035700
     48 H18         43.6060    28.8040    27.4890 hc         1 QWZ       0.035700
     49 H19         44.8370    30.0480    27.5740 hc         1 QWZ       0.035700
     50 H20         43.4090    30.6110    25.7500 hc         1 QWZ       0.043200
     51 H21         43.0740    31.8020    26.9960 hc         1 QWZ       0.043200
     52 H22         36.0480    31.0310    28.6640 hc         1 QWZ       0.049033
     53 H23         35.4100    31.2390    27.0270 hc         1 QWZ       0.049033
     54 H24         34.9600    29.8200    27.9780 hc         1 QWZ       0.049033
     55 H25         35.8220    28.3140    25.9540 hc         1 QWZ       0.049033
     56 H26         36.3130    29.7630    25.0840 hc         1 QWZ       0.049033
     57 H27         37.4920    28.4930    25.4180 hc         1 QWZ       0.049033
     58 H28         37.8010    24.1290    26.6650 ha         1 QWZ       0.121000
     59 H29         39.6740    27.2490    23.9220 h1         1 QWZ       0.041033
     60 H30         39.8590    27.9980    25.5200 h1         1 QWZ       0.041033
     61 H31         41.0520    26.8000    24.9490 h1         1 QWZ       0.041033
     62 H32         35.2190    27.5380    27.8730 ha         1 QWZ       0.115000
     63 H33         41.1030    30.6130    25.6540 hc         1 QWZ       0.045700
     64 H34         41.3880    29.2630    26.7280 hc         1 QWZ       0.045700
     65 H35         38.0650    23.2690    28.9760 ha         1 QWZ       0.110500
     66 H36         38.7690    27.5220    30.3560 ha         1 QWZ       0.145000
     67 O2          35.5140    24.4570    31.2480 os         1 QWZ      -0.332100
     68 C24         35.7880    30.4970    27.7410 c3         1 QWZ      -0.068100
     69 C25         36.6370    29.0340    25.8370 c3         1 QWZ      -0.068100
     70 O           39.2000    26.0110    25.5360 os         1 QWZ      -0.345100
@<TRIPOS>BOND
     1     1     6 1   
     2     1    27 1   
     3     2     3 ar  
     4     2    21 ar  
     5     2    31 1   
     6     3     4 ar  
     7     3    32 1   
     8     4     5 1   
     9     4    26 ar  
    10     5     6 1   
    11     5    33 1   
    12     5    34 1   
    13     6    35 1   
    14     6    36 1   
    15     7    10 1   
    16     7    22 ar  
    17     7    28 ar  
    18     8    22 ar  
    19     8    23 ar  
    20     8    37 1   
    21     9    38 1   
    22     9    39 1   
    23     9    40 1   
    24     9    67 1   
    25    10    19 2   
    26    10    25 1   
    27    11    12 1   
    28    11    24 1   
    29    11    29 1   
    30    11    41 1   
    31    12    13 1   
    32    12    42 1   
    33    12    43 1   
    34    13    14 1   
    35    13    44 1   
    36    13    45 1   
    37    14    15 1   
    38    14    46 1   
    39    14    47 1   
    40    15    16 1   
    41    15    48 1   
    42    15    49 1   
    43    16    24 1   
    44    16    50 1   
    45    16    51 1   
    46    17    25 1   
    47    17    29 1   
    48    17    30 2   
    49    18    21 ar  
    50    18    26 ar  
    51    18    58 1   
    52    19    29 1   
    53    20    59 1   
    54    20    60 1   
    55    20    61 1   
    56    20    70 1   
    57    21    70 1   
    58    22    62 1   
    59    23    27 ar  
    60    23    67 1   
    61    24    63 1   
    62    24    64 1   
    63    25    68 1   
    64    25    69 1   
    65    26    65 1   
    66    27    28 ar  
    67    28    66 1   
    68    52    68 1   
    69    53    68 1   
    70    54    68 1   
    71    55    69 1   
    72    56    69 1   
    73    57    69 1   
@<TRIPOS>SUBSTRUCTURE
     1 QWZ         1 TEMP              0 ****  ****    0 ROOT
