@<TRIPOS>MOLECULE
QWZ
   70    73     1     0     0
SMALL
bcc


@<TRIPOS>ATOM
      1 O1          38.3810    25.3740    31.5400 os         1 QWZ      -0.326900
      2 C2          40.4610    25.9170    27.2170 ca         1 QWZ      -0.184000
      3 C3          40.6020    25.3730    28.4910 ca         1 QWZ      -0.089000
      4 C4          39.7410    24.4010    28.9750 ca         1 QWZ      -0.114300
      5 C5          39.8950    23.8370    30.3630 c3         1 QWZ      -0.055100
      6 C6          38.6740    24.0050    31.2540 c3         1 QWZ       0.147400
      7 C9          37.1530    27.7640    29.0560 ca         1 QWZ      -0.134900
      8 C11         35.3190    26.3780    29.8130 ca         1 QWZ      -0.218000
      9 C13         34.4000    24.3520    31.5390 c3         1 QWZ       0.122700
     10 C14         37.7010    28.8560    28.2550 ce         1 QWZ       0.390900
     11 C15         40.5020    30.8880    27.5940 c3         1 QWZ       0.148700
     12 C16         40.8320    31.4100    29.0000 c3         1 QWZ      -0.080400
     13 C17         41.6240    30.4860    29.9260 c3         1 QWZ      -0.067900
     14 C18         43.1350    30.5520    29.7120 c3         1 QWZ      -0.072400
     15 C19         43.6490    29.9180    28.4250 c3         1 QWZ      -0.072400
     16 C20         42.9920    30.4050    27.1360 c3         1 QWZ      -0.067900
     17 C22         38.1540    30.5690    26.7530 c          1 QWZ       0.685500
     18 C27         38.5540    24.4990    26.8640 ca         1 QWZ      -0.184000
     19 N           38.9140    29.2380    28.4250 n2         1 QWZ      -0.429300
     20 C           40.0450    26.9450    24.6320 c3         1 QWZ       0.122700
     21 C1          39.4260    25.4840    26.3950 ca         1 QWZ       0.136100
     22 C10         35.8140    27.3930    29.0050 ca         1 QWZ      -0.077000
     23 C12         36.1570    25.6950    30.6860 ca         1 QWZ       0.122100
     24 C21         41.5410    29.9500    26.9810 c3         1 QWZ      -0.080400
     25 C23         37.0140    29.6440    27.1670 c5         1 QWZ      -0.205300
     26 C26         38.7180    23.9680    28.1290 ca         1 QWZ      -0.089000
     27 C7          37.5290    26.0200    30.7030 ca         1 QWZ       0.077100
     28 C8          37.9970    27.0490    29.9160 ca         1 QWZ      -0.071000
     29 N1          39.1940    30.2560    27.5590 n          1 QWZ      -0.255800
     30 O3          38.1320    31.4240    25.8880 o          1 QWZ      -0.602500
     31 H1          41.1650    26.6710    26.8920 ha         1 QWZ       0.139000
     32 H2          41.4070    25.7370    29.1200 ha         1 QWZ       0.128500
     33 H3          40.0930    22.7620    30.3090 hc         1 QWZ       0.053200
     34 H4          40.7660    24.2820    30.8500 hc         1 QWZ       0.053200
     35 H5          37.8120    23.5000    30.8130 h1         1 QWZ       0.051700
     36 H6          38.8650    23.5300    32.2180 h1         1 QWZ       0.051700
     37 H7          34.2650    26.1430    29.7590 ha         1 QWZ       0.136000
     38 H8          34.3040    23.5680    32.2860 h1         1 QWZ       0.042367
     39 H9          33.7410    25.1800    31.8100 h1         1 QWZ       0.042367
     40 H10         34.0900    23.9560    30.5690 h1         1 QWZ       0.042367
     41 H11         40.4040    31.7560    26.9400 h1         1 QWZ       0.070700
     42 H12         41.3950    32.3400    28.8870 hc         1 QWZ       0.045700
     43 H13         39.8930    31.7010    29.4770 hc         1 QWZ       0.045700
     44 H14         41.2710    29.4550    29.8430 hc         1 QWZ       0.043200
     45 H15         41.4180    30.7890    30.9560 hc         1 QWZ       0.043200
     46 H16         43.6350    30.0680    30.5550 hc         1 QWZ       0.035700
     47 H17         43.4430    31.6040    29.7440 hc         1 QWZ       0.035700
     48 H18         43.5200    28.8310    28.4830 hc         1 QWZ       0.035700
     49 H19         44.7270    30.0890    28.3630 hc         1 QWZ       0.035700
     50 H20         43.5660    30.0110    26.2940 hc         1 QWZ       0.043200
     51 H21         43.0620    31.4950    27.0580 hc         1 QWZ       0.043200
     52 H22         36.1500    31.1160    28.5280 hc         1 QWZ       0.049033
     53 H23         35.5480    31.1950    26.8680 hc         1 QWZ       0.049033
     54 H24         34.9920    29.9210    27.9460 hc         1 QWZ       0.049033
     55 H25         35.7590    28.1340    26.2280 hc         1 QWZ       0.049033
     56 H26         36.2900    29.4180    25.1460 hc         1 QWZ       0.049033
     57 H27         37.4170    28.1460    25.6320 hc         1 QWZ       0.049033
     58 H28         37.7500    24.1520    26.2270 ha         1 QWZ       0.139000
     59 H29         39.6920    27.1660    23.6280 h1         1 QWZ       0.041033
     60 H30         40.0070    27.8620    25.2260 h1         1 QWZ       0.041033
     61 H31         41.0840    26.6080    24.5730 h1         1 QWZ       0.041033
     62 H32         35.1180    27.8940    28.3480 ha         1 QWZ       0.133000
     63 H33         41.2970    29.8410    25.9210 hc         1 QWZ       0.045700
     64 H34         41.4320    28.9520    27.4180 hc         1 QWZ       0.045700
     65 H35         38.0260    23.2040    28.4640 ha         1 QWZ       0.128500
     66 H36         39.0500    27.2910    29.9630 ha         1 QWZ       0.163000
     67 O2          35.7600    24.7400    31.5390 os         1 QWZ      -0.308900
     68 C24         35.8580    30.5180    27.6650 c3         1 QWZ      -0.068100
     69 C25         36.5990    28.7790    25.9750 c3         1 QWZ      -0.068100
     70 O           39.1910    25.9470    25.1490 os         1 QWZ      -0.321900
@<TRIPOS>BOND
     1     1     6 1   
     2     1    27 1   
     3     2     3 ar  
     4     2    21 ar  
     5     2    31 1   
     6     3     4 ar  
     7     3    32 1   
     8     4     5 1   
     9     4    26 ar  
    10     5     6 1   
    11     5    33 1   
    12     5    34 1   
    13     6    35 1   
    14     6    36 1   
    15     7    10 1   
    16     7    22 ar  
    17     7    28 ar  
    18     8    22 ar  
    19     8    23 ar  
    20     8    37 1   
    21     9    38 1   
    22     9    39 1   
    23     9    40 1   
    24     9    67 1   
    25    10    19 2   
    26    10    25 1   
    27    11    12 1   
    28    11    24 1   
    29    11    29 1   
    30    11    41 1   
    31    12    13 1   
    32    12    42 1   
    33    12    43 1   
    34    13    14 1   
    35    13    44 1   
    36    13    45 1   
    37    14    15 1   
    38    14    46 1   
    39    14    47 1   
    40    15    16 1   
    41    15    48 1   
    42    15    49 1   
    43    16    24 1   
    44    16    50 1   
    45    16    51 1   
    46    17    25 1   
    47    17    29 1   
    48    17    30 2   
    49    18    21 ar  
    50    18    26 ar  
    51    18    58 1   
    52    19    29 1   
    53    20    59 1   
    54    20    60 1   
    55    20    61 1   
    56    20    70 1   
    57    21    70 1   
    58    22    62 1   
    59    23    27 ar  
    60    23    67 1   
    61    24    63 1   
    62    24    64 1   
    63    25    68 1   
    64    25    69 1   
    65    26    65 1   
    66    27    28 ar  
    67    28    66 1   
    68    52    68 1   
    69    53    68 1   
    70    54    68 1   
    71    55    69 1   
    72    56    69 1   
    73    57    69 1   
@<TRIPOS>SUBSTRUCTURE
     1 QWZ         1 TEMP              0 ****  ****    0 ROOT
