@<TRIPOS>MOLECULE
QX0
   27    28     1     0     0
SMALL
abcg2


@<TRIPOS>ATOM
      1 C01          7.6290     8.2270    15.4130 ca         1 QX0      -0.175000
      2 C02          7.4890     9.0130    16.5540 ca         1 QX0      -0.101000
      3 C04          6.2090     7.2600    17.6410 ca         1 QX0       0.323000
      4 C05          6.3270     6.4600    16.4750 ca         1 QX0      -0.183600
      5 C06          7.0420     6.9700    15.3900 ca         1 QX0      -0.059000
      6 C10          6.7700     7.8860    22.0160 ca         1 QX0      -0.082000
      7 C11          5.7420     7.4810    22.8540 ca         1 QX0      -0.153000
      8 C13          4.5560     6.6330    20.9030 ca         1 QX0      -0.143000
      9 C17          3.5670     6.3990    23.1140 cg         1 QX0       0.348000
     10 C03          6.7870     8.5400    17.6500 ca         1 QX0      -0.197000
     11 N07          5.4690     6.7810    18.7110 nu         1 QX0      -0.994000
     12 C08          5.5950     7.0540    20.0580 ca         1 QX0       0.358000
     13 C09          6.7100     7.6770    20.6450 ca         1 QX0      -0.176000
     14 C12          4.6370     6.8420    22.2780 ca         1 QX0       0.004000
     15 C14          5.6970     5.0780    16.3400 c          1 QX0       0.713600
     16 O15          4.8290     4.7350    17.2020 o          1 QX0      -0.712500
     17 O16          6.0640     4.3670    15.3780 o          1 QX0      -0.712500
     18 N18          2.7060     6.0410    23.7930 n1         1 QX0      -0.500000
     19 H19          8.1780     8.5920    14.5550 ha         1 QX0       0.092000
     20 H20          7.9190    10.0070    16.5890 ha         1 QX0       0.085000
     21 H22          7.1280     6.3430    14.5140 ha         1 QX0       0.131000
     22 H25          7.6450     8.3650    22.4370 ha         1 QX0       0.100000
     23 H26          5.7860     7.6430    23.9210 ha         1 QX0       0.109000
     24 H27          3.6890     6.1450    20.4790 ha         1 QX0       0.134000
     25 H21          6.6550     9.1790    18.5110 ha         1 QX0       0.099000
     26 H23          4.9440     5.9400    18.4380 hn         1 QX0       0.569000
     27 H24          7.5480     7.9740    20.0320 ha         1 QX0       0.125000
@<TRIPOS>BOND
     1     1     2 ar  
     2     1     5 ar  
     3     1    19 1   
     4     2    10 ar  
     5     2    20 1   
     6     3     4 ar  
     7     3    10 ar  
     8     3    11 1   
     9     4     5 ar  
    10     4    15 1   
    11     5    21 1   
    12     6     7 ar  
    13     6    13 ar  
    14     6    22 1   
    15     7    14 ar  
    16     7    23 1   
    17     8    12 ar  
    18     8    14 ar  
    19     8    24 1   
    20     9    14 1   
    21     9    18 3   
    22    10    25 1   
    23    11    12 1   
    24    11    26 1   
    25    12    13 ar  
    26    13    27 1   
    27    15    16 1   
    28    15    17 1   
@<TRIPOS>SUBSTRUCTURE
     1 QX0         1 TEMP              0 ****  ****    0 ROOT
