@<TRIPOS>MOLECULE
QX0
   27    28     1     0     0
SMALL
No Charge or Current Charge


@<TRIPOS>ATOM
      1 C01          7.5280     8.2900    15.3380 ca         1 QX0      -0.175000
      2 C02          7.4190     9.0650    16.5000 ca         1 QX0      -0.101000
      3 C04          6.2550     7.2280    17.6160 ca         1 QX0       0.323000
      4 C05          6.3380     6.4500    16.4360 ca         1 QX0      -0.183600
      5 C06          6.9890     6.9940    15.3030 ca         1 QX0      -0.059000
      6 C10          6.8260     7.8130    22.0950 ca         1 QX0      -0.082000
      7 C11          5.7180     7.4710    22.8880 ca         1 QX0      -0.153000
      8 C13          4.5670     6.6350    20.9130 ca         1 QX0      -0.143000
      9 C17          3.4510     6.5180    23.1130 cg         1 QX0       0.348000
     10 C03          6.7790     8.5350    17.6300 ca         1 QX0      -0.197000
     11 N07          5.6170     6.7210    18.7460 nu         1 QX0      -0.994000
     12 C08          5.6630     6.9920    20.1120 ca         1 QX0       0.358000
     13 C09          6.7980     7.5680    20.7110 ca         1 QX0      -0.176000
     14 C12          4.5840     6.8770    22.3010 ca         1 QX0       0.004000
     15 C14          5.7600     5.0530    16.3550 c          1 QX0       0.713600
     16 O15          4.7930     4.7670    17.0500 o          1 QX0      -0.712500
     17 O16          6.2680     4.2660    15.5690 o          1 QX0      -0.712500
     18 N18          2.5250     6.2240    23.7640 n1         1 QX0      -0.500000
     19 H19          8.0220     8.6970    14.4590 ha         1 QX0       0.092000
     20 H20          7.8220    10.0750    16.5230 ha         1 QX0       0.085000
     21 H22          7.0720     6.4130    14.3870 ha         1 QX0       0.131000
     22 H25          7.7060     8.2590    22.5520 ha         1 QX0       0.100000
     23 H26          5.7450     7.6630    23.9590 ha         1 QX0       0.109000
     24 H27          3.6950     6.1770    20.4540 ha         1 QX0       0.134000
     25 H21          6.6780     9.1570    18.5140 ha         1 QX0       0.099000
     26 H23          5.0290     5.9130    18.4920 hn         1 QX0       0.569000
     27 H24          7.6700     7.8100    20.1120 ha         1 QX0       0.125000
@<TRIPOS>BOND
     1     1     2 ar  
     2     1     5 ar  
     3     1    19 1   
     4     2    10 ar  
     5     2    20 1   
     6     3     4 ar  
     7     3    10 ar  
     8     3    11 1   
     9     4     5 ar  
    10     4    15 1   
    11     5    21 1   
    12     6     7 ar  
    13     6    13 ar  
    14     6    22 1   
    15     7    14 ar  
    16     7    23 1   
    17     8    12 ar  
    18     8    14 ar  
    19     8    24 1   
    20     9    14 1   
    21     9    18 3   
    22    10    25 1   
    23    11    12 1   
    24    11    26 1   
    25    12    13 ar  
    26    13    27 1   
    27    15    16 1   
    28    15    17 1   
@<TRIPOS>SUBSTRUCTURE
     1 QX0         1 TEMP              0 ****  ****    0 ROOT
