@<TRIPOS>MOLECULE
QX1
   64    68     1     0     0
SMALL
No Charge or Current Charge


@<TRIPOS>ATOM
      1 C2           0.0420     1.5240     0.1930 cc         1 QX1       0.487500
      2 C12         -2.5530     1.3510     0.1350 ca         1 QX1       0.029200
      3 C13          4.1510     0.8490     0.0490 ca         1 QX1      -0.027000
      4 C14          4.7190     0.1250    -1.0240 ca         1 QX1      -0.107000
      5 C15          6.0930    -0.1710    -1.0470 ca         1 QX1      -0.113500
      6 C16          6.9220     0.2530     0.0030 ca         1 QX1      -0.107000
      7 C17          6.3740     0.9760     1.0740 ca         1 QX1      -0.113500
      8 C18          5.0010     1.2730     1.0950 ca         1 QX1      -0.107000
      9 C19         -3.7340     2.1290     0.1210 ca         1 QX1      -0.179000
     10 C20         -5.0090     1.5310    -0.0180 ca         1 QX1       0.112100
     11 C21         -5.1170     0.1290    -0.1420 ca         1 QX1       0.096100
     12 C22         -3.9460    -0.6570    -0.1240 ca         1 QX1      -0.167000
     13 C23         -2.6860    -0.0510     0.0120 ca         1 QX1      -0.108000
     14 C26         -6.1710     3.7190     0.0840 c3         1 QX1       0.147900
     15 C27         -6.5750    -1.8540    -0.4080 c3         1 QX1       0.147900
     16 C28          1.2880    -2.3630    -0.3840 c6         1 QX1       0.236500
     17 C29          1.9990    -3.4720    -1.1870 c6         1 QX1      -0.093400
     18 C30          1.1710    -4.7770    -1.1550 c6         1 QX1       0.169800
     19 N1           0.8480     2.5940     0.4740 na         1 QX1       0.038900
     20 N3           0.4040     0.2580    -0.1240 nc         1 QX1      -0.796000
     21 C4           1.7070     0.1140    -0.1520 cd         1 QX1       0.704900
     22 C5           2.6930     1.1550     0.0690 cd         1 QX1      -0.319000
     23 C6           2.2390     2.4160     0.4510 cc         1 QX1       0.437000
     24 N7           0.2160     3.7950     0.7460 nc         1 QX1      -0.620100
     25 C8          -1.0490     3.4090     0.6290 cd         1 QX1       0.426500
     26 C9          -1.2350     2.0290     0.2860 cd         1 QX1      -0.274800
     27 N10          3.0160     3.5150     0.6880 nv         1 QX1      -1.094000
     28 N11          2.1360    -1.1550    -0.3640 nu         1 QX1      -0.920100
     29 O24         -6.1720     2.2860    -0.0380 os         1 QX1      -0.325100
     30 O25         -6.3750    -0.4360    -0.2760 os         1 QX1      -0.324100
     31 N31          0.9120    -5.2210     0.2420 n3         1 QX1      -0.720600
     32 C32          0.2130    -4.1720     1.0340 c6         1 QX1       0.169800
     33 C33          1.0170    -2.8530     1.0560 c6         1 QX1      -0.093400
     34 C34          0.2140    -6.5240     0.2970 c3         1 QX1       0.154100
     35 H1           4.1030    -0.1830    -1.8660 ha         1 QX1       0.121500
     36 H2           6.5160    -0.7230    -1.8840 ha         1 QX1       0.116000
     37 H3           7.9850     0.0230    -0.0140 ha         1 QX1       0.115000
     38 H4           7.0130     1.3010     1.8920 ha         1 QX1       0.116000
     39 H5           4.5950     1.8070     1.9510 ha         1 QX1       0.121500
     40 H6          -3.6590     3.2050     0.2050 ha         1 QX1       0.111000
     41 H7          -3.9910    -1.7380    -0.2120 ha         1 QX1       0.112000
     42 H8          -1.8230    -0.7050     0.0380 ha         1 QX1       0.135000
     43 H9          -5.7290     4.0300     1.0390 h1         1 QX1       0.036367
     44 H10         -5.6050     4.1800    -0.7360 h1         1 QX1       0.036367
     45 H11         -7.1980     4.1030     0.0450 h1         1 QX1       0.036367
     46 H12         -6.1920    -2.3860     0.4720 h1         1 QX1       0.035700
     47 H13         -7.6450    -2.0790    -0.5020 h1         1 QX1       0.035700
     48 H14         -6.0680    -2.2380    -1.3020 h1         1 QX1       0.035700
     49 H15          0.3220    -2.1620    -0.8770 h1         1 QX1       0.080700
     50 H16          2.1420    -3.1520    -2.2280 hc         1 QX1       0.054700
     51 H17          2.9970    -3.6650    -0.7720 hc         1 QX1       0.054700
     52 H18          0.2200    -4.6130    -1.6850 h1         1 QX1       0.033450
     53 H19          1.7180    -5.5550    -1.7060 h1         1 QX1       0.033450
     54 H20         -1.8140     4.1530     0.8090 h4         1 QX1       0.041800
     55 H21          3.9580     3.5140     0.3080 hn         1 QX1       0.510000
     56 H22          2.5300     4.4100     0.7080 hn         1 QX1       0.510000
     57 H23          3.1350    -1.2540    -0.2200 hn         1 QX1       0.500000
     58 H25         -0.7850    -3.9770     0.6120 h1         1 QX1       0.033450
     59 H26          0.0650    -4.5120     2.0700 h1         1 QX1       0.033450
     60 H27          1.9640    -3.0100     1.5890 hc         1 QX1       0.054700
     61 H28          0.4580    -2.0930     1.6180 hc         1 QX1       0.054700
     62 H29          0.7850    -7.2920    -0.2400 h1         1 QX1       0.030367
     63 H30          0.0950    -6.8560     1.3370 h1         1 QX1       0.030367
     64 H31         -0.7830    -6.4540    -0.1580 h1         1 QX1       0.030367
@<TRIPOS>BOND
     1     1    19 1   
     2     1    20 1   
     3     1    26 2   
     4     2     9 ar  
     5     2    13 ar  
     6     2    26 1   
     7     3     4 ar  
     8     3     8 ar  
     9     3    22 1   
    10     4     5 ar  
    11     4    35 1   
    12     5     6 ar  
    13     5    36 1   
    14     6     7 ar  
    15     6    37 1   
    16     7     8 ar  
    17     7    38 1   
    18     8    39 1   
    19     9    10 ar  
    20     9    40 1   
    21    10    11 ar  
    22    10    29 1   
    23    11    12 ar  
    24    11    30 1   
    25    12    13 ar  
    26    12    41 1   
    27    13    42 1   
    28    14    29 1   
    29    14    43 1   
    30    14    44 1   
    31    14    45 1   
    32    15    30 1   
    33    15    46 1   
    34    15    47 1   
    35    15    48 1   
    36    16    17 1   
    37    16    28 1   
    38    16    33 1   
    39    16    49 1   
    40    17    18 1   
    41    17    50 1   
    42    17    51 1   
    43    18    31 1   
    44    18    52 1   
    45    18    53 1   
    46    19    23 1   
    47    19    24 1   
    48    20    21 2   
    49    21    22 1   
    50    21    28 1   
    51    22    23 2   
    52    23    27 1   
    53    24    25 2   
    54    25    26 1   
    55    25    54 1   
    56    27    55 1   
    57    27    56 1   
    58    28    57 1   
    59    31    32 1   
    60    31    34 1   
    61    32    33 1   
    62    32    58 1   
    63    32    59 1   
    64    33    60 1   
    65    33    61 1   
    66    34    62 1   
    67    34    63 1   
    68    34    64 1   
@<TRIPOS>SUBSTRUCTURE
     1 QX1         1 TEMP              0 ****  ****    0 ROOT
