@<TRIPOS>MOLECULE
QX1
   64    68     1     0     0
SMALL
bcc


@<TRIPOS>ATOM
      1 C2           0.0370     1.4730     0.1880 cc         1 QX1       0.487500
      2 C12         -2.5280     1.3300     0.1570 ca         1 QX1       0.029200
      3 C13          4.1920     0.8590     0.0870 ca         1 QX1      -0.027000
      4 C14          4.8040     0.4820    -1.1100 ca         1 QX1      -0.125000
      5 C15          6.1720     0.2560    -1.1650 ca         1 QX1      -0.131500
      6 C16          6.9500     0.4110    -0.0250 ca         1 QX1      -0.125000
      7 C17          6.3540     0.7880     1.1710 ca         1 QX1      -0.131500
      8 C18          4.9840     1.0060     1.2270 ca         1 QX1      -0.125000
      9 C19         -3.7200     2.0710     0.0870 ca         1 QX1      -0.197000
     10 C20         -4.9550     1.4550     0.0050 ca         1 QX1       0.112100
     11 C21         -5.0360     0.0480    -0.0120 ca         1 QX1       0.096100
     12 C22         -3.8650    -0.6850     0.0520 ca         1 QX1      -0.185000
     13 C23         -2.6240    -0.0560     0.1360 ca         1 QX1      -0.126000
     14 C26         -6.1230     3.5160    -0.0620 c3         1 QX1       0.124700
     15 C27         -6.4090    -1.8750    -0.1360 c3         1 QX1       0.124700
     16 C28          1.3540    -2.3670    -0.2900 c6         1 QX1       0.236500
     17 C29          2.0600    -3.5020    -1.0200 c6         1 QX1      -0.093400
     18 C30          1.1470    -4.7150    -1.1150 c6         1 QX1       0.169800
     19 N1           0.8950     2.5340     0.3430 na         1 QX1      -0.011800
     20 N3           0.4760     0.2280     0.0190 nc         1 QX1      -0.796000
     21 C4           1.7870     0.0400    -0.0050 cd         1 QX1       0.770200
     22 C5           2.7330     1.1010     0.1410 cd         1 QX1      -0.384300
     23 C6           2.2500     2.3810     0.3230 cc         1 QX1       0.349300
     24 N7           0.2670     3.7140     0.5000 nc         1 QX1      -0.620100
     25 C8          -1.0110     3.3970     0.4450 cd         1 QX1       0.426500
     26 C9          -1.2480     2.0220     0.2550 cd         1 QX1      -0.274800
     27 N10          2.9870     3.4830     0.4990 nv         1 QX1      -0.845200
     28 N11          2.2300    -1.2190    -0.1920 nu         1 QX1      -0.864900
     29 O24         -6.1340     2.1040    -0.0690 os         1 QX1      -0.301900
     30 O25         -6.2790    -0.4690    -0.0930 os         1 QX1      -0.300900
     31 N31          0.7010    -5.1500     0.1940 n3         1 QX1      -0.720600
     32 C32         -0.0120    -4.0960     0.8900 c6         1 QX1       0.169800
     33 C33          0.8610    -2.8640     1.0660 c6         1 QX1      -0.093400
     34 C34         -0.0870    -6.3580     0.1060 c3         1 QX1       0.154100
     35 H1           4.2030     0.3720    -2.0040 ha         1 QX1       0.139500
     36 H2           6.6310    -0.0370    -2.1000 ha         1 QX1       0.134000
     37 H3           8.0180     0.2400    -0.0690 ha         1 QX1       0.133000
     38 H4           6.9550     0.9100     2.0620 ha         1 QX1       0.134000
     39 H5           4.5220     1.2890     2.1650 ha         1 QX1       0.139500
     40 H6          -3.6660     3.1520     0.0880 ha         1 QX1       0.129000
     41 H7          -3.8920    -1.7670     0.0390 ha         1 QX1       0.130000
     42 H8          -1.7320    -0.6650     0.1850 ha         1 QX1       0.153000
     43 H9          -5.6910     3.9200     0.8580 h1         1 QX1       0.036367
     44 H10         -5.5740     3.9260    -0.9150 h1         1 QX1       0.036367
     45 H11         -7.1600     3.8340    -0.1300 h1         1 QX1       0.036367
     46 H12         -6.0260    -2.3510     0.7720 h1         1 QX1       0.035700
     47 H13         -7.4730    -2.0850    -0.2170 h1         1 QX1       0.035700
     48 H14         -5.8980    -2.3080    -1.0000 h1         1 QX1       0.035700
     49 H15          0.4840    -2.0650    -0.8800 h1         1 QX1       0.080700
     50 H16          2.3510    -3.1850    -2.0240 hc         1 QX1       0.054700
     51 H17          2.9750    -3.7760    -0.4840 hc         1 QX1       0.054700
     52 H18          0.2930    -4.4720    -1.7740 h1         1 QX1       0.033450
     53 H19          1.6830    -5.5380    -1.5940 h1         1 QX1       0.033450
     54 H20         -1.7450     4.1830     0.5540 h4         1 QX1       0.041800
     55 H21          3.9760     3.4450     0.3250 hn         1 QX1       0.454800
     56 H22          2.5430     4.3860     0.4410 hn         1 QX1       0.454800
     57 H23          3.2140    -1.3950    -0.0660 hn         1 QX1       0.444800
     58 H25         -0.9380    -3.8120     0.3540 h1         1 QX1       0.033450
     59 H26         -0.3250    -4.4710     1.8670 h1         1 QX1       0.033450
     60 H27          1.7190    -3.1100     1.7000 hc         1 QX1       0.054700
     61 H28          0.2920    -2.0810     1.5710 hc         1 QX1       0.054700
     62 H29          0.4920    -7.1510    -0.3690 h1         1 QX1       0.030367
     63 H30         -0.3640    -6.6990     1.1050 h1         1 QX1       0.030367
     64 H31         -1.0170    -6.2310    -0.4720 h1         1 QX1       0.030367
@<TRIPOS>BOND
     1     1    19 1   
     2     1    20 1   
     3     1    26 2   
     4     2     9 ar  
     5     2    13 ar  
     6     2    26 1   
     7     3     4 ar  
     8     3     8 ar  
     9     3    22 1   
    10     4     5 ar  
    11     4    35 1   
    12     5     6 ar  
    13     5    36 1   
    14     6     7 ar  
    15     6    37 1   
    16     7     8 ar  
    17     7    38 1   
    18     8    39 1   
    19     9    10 ar  
    20     9    40 1   
    21    10    11 ar  
    22    10    29 1   
    23    11    12 ar  
    24    11    30 1   
    25    12    13 ar  
    26    12    41 1   
    27    13    42 1   
    28    14    29 1   
    29    14    43 1   
    30    14    44 1   
    31    14    45 1   
    32    15    30 1   
    33    15    46 1   
    34    15    47 1   
    35    15    48 1   
    36    16    17 1   
    37    16    28 1   
    38    16    33 1   
    39    16    49 1   
    40    17    18 1   
    41    17    50 1   
    42    17    51 1   
    43    18    31 1   
    44    18    52 1   
    45    18    53 1   
    46    19    23 1   
    47    19    24 1   
    48    20    21 2   
    49    21    22 1   
    50    21    28 1   
    51    22    23 2   
    52    23    27 1   
    53    24    25 2   
    54    25    26 1   
    55    25    54 1   
    56    27    55 1   
    57    27    56 1   
    58    28    57 1   
    59    31    32 1   
    60    31    34 1   
    61    32    33 1   
    62    32    58 1   
    63    32    59 1   
    64    33    60 1   
    65    33    61 1   
    66    34    62 1   
    67    34    63 1   
    68    34    64 1   
@<TRIPOS>SUBSTRUCTURE
     1 QX1         1 TEMP              0 ****  ****    0 ROOT
