@<TRIPOS>MOLECULE
QX2
   14    15     1     0     0
SMALL
No Charge or Current Charge


@<TRIPOS>ATOM
      1 C10          2.7000     4.0170    31.1710 ca         1 QX2       0.028100
      2 C02          4.9440     3.1000    33.8110 cc         1 QX2       0.436700
      3 C04          2.8320     3.5240    33.5440 ca         1 QX2       0.482000
      4 C06          0.7790     4.0600    32.6580 ca         1 QX2       0.413200
      5 C08          1.3180     4.2240    31.3540 ca         1 QX2      -0.035900
      6 C12          3.4250     3.6630    32.3140 ca         1 QX2      -0.118200
      7 N01          4.7530     3.3990    32.4680 na         1 QX2      -0.294600
      8 N03          3.7820     3.1690    34.4940 nd         1 QX2      -0.619700
      9 N05          1.5200     3.7150    33.7420 nb         1 QX2      -0.571000
     10 Br3         -1.0890     4.3200    33.0010 br         1 QX2      -0.113200
     11 Br2          0.1950     4.7140    29.8710 br         1 QX2      -0.016100
     12 Br1          3.5620     4.2030    29.4660 br         1 QX2      -0.040100
     13 H021         5.9170     2.8480    34.2180 h5         1 QX2       0.073800
     14 H011         5.4730     3.4140    31.7560 hn         1 QX2       0.374000
@<TRIPOS>BOND
     1     1     5 ar  
     2     1     6 ar  
     3     1    12 1   
     4     2     7 1   
     5     2     8 2   
     6     2    13 1   
     7     3     6 ar  
     8     3     8 1   
     9     3     9 ar  
    10     4     5 ar  
    11     4     9 ar  
    12     4    10 1   
    13     5    11 1   
    14     6     7 1   
    15     7    14 1   
@<TRIPOS>SUBSTRUCTURE
     1 QX2         1 TEMP              0 ****  ****    0 ROOT
