@<TRIPOS>MOLECULE
QX2
   14    15     1     0     0
SMALL
bcc


@<TRIPOS>ATOM
      1 C10          2.6920     4.0210    31.1540 ca         1 QX2       0.028100
      2 C02          4.8790     3.1130    33.7950 cc         1 QX2       0.436700
      3 C04          2.8320     3.5290    33.5130 ca         1 QX2       0.547300
      4 C06          0.8220     4.0510    32.6710 ca         1 QX2       0.478500
      5 C08          1.3300     4.2190    31.3650 ca         1 QX2      -0.101200
      6 C12          3.4460     3.6710    32.2570 ca         1 QX2      -0.183500
      7 N01          4.7590     3.3950    32.4760 na         1 QX2      -0.244300
      8 N03          3.7540     3.1800    34.4520 nd         1 QX2      -0.619700
      9 N05          1.5360     3.7180    33.7120 nb         1 QX2      -0.571000
     10 BR3         -1.0170     4.3090    33.0080 br         1 QX2      -0.113200
     11 BR2          0.2190     4.6940    29.9450 br         1 QX2      -0.016100
     12 BR1          3.5100     4.2040    29.4920 br         1 QX2      -0.040100
     13 H021         5.8370     2.8600    34.2240 h5         1 QX2       0.073800
     14 H011         5.5120     3.4050    31.8050 hn         1 QX2       0.323700
@<TRIPOS>BOND
     1     1     5 ar  
     2     1     6 ar  
     3     1    12 1   
     4     2     7 1   
     5     2     8 2   
     6     2    13 1   
     7     3     6 ar  
     8     3     8 1   
     9     3     9 ar  
    10     4     5 ar  
    11     4     9 ar  
    12     4    10 1   
    13     5    11 1   
    14     6     7 1   
    15     7    14 1   
@<TRIPOS>SUBSTRUCTURE
     1 QX2         1 TEMP              0 ****  ****    0 ROOT
