@<TRIPOS>MOLECULE
QX3
   41    44     1     0     0
SMALL
abcg2


@<TRIPOS>ATOM
      1 N1         -19.8280     5.0760    26.1920 ns         1 QX3      -0.173000
      2 C4         -22.5300     6.4340    27.2630 c6         1 QX3      -0.081400
      3 C5         -21.7970     5.1210    27.6090 c6         1 QX3      -0.079400
      4 C6         -20.2900     5.3210    27.4460 c          1 QX3       0.595100
      5 C7         -18.4720     5.2550    25.8080 ca         1 QX3      -0.096000
      6 C8         -17.7260     4.1300    25.4670 ca         1 QX3       0.327900
      7 C10        -16.5310     6.5510    25.3800 ca         1 QX3      -0.160000
      8 C13        -18.0280     8.8490    26.9000 cx         1 QX3      -0.113900
      9 C15        -22.1390     4.6740    29.0090 ca         1 QX3      -0.142300
     10 C17        -22.2650     2.9050    30.6630 ca         1 QX3       0.069000
     11 CL1        -22.0500     1.2180    31.0550 cl         1 QX3      -0.187000
     12 C          -22.7050     3.8300    31.6080 ca         1 QX3       0.182000
     13 CL         -23.0620     3.3420    33.2440 cl         1 QX3      -0.185000
     14 C16        -21.9890     3.3450    29.3750 ca         1 QX3      -0.040000
     15 C2         -22.5960     5.6070    29.9630 ca         1 QX3       0.362000
     16 C1         -22.8710     5.1600    31.2650 ca         1 QX3      -0.184000
     17 C3         -22.3470     7.4660    28.3650 c6         1 QX3       0.220800
     18 N          -22.8170     6.9180    29.6270 nu         1 QX3      -0.963200
     19 O          -19.5680     5.7210    28.3500 o          1 QX3      -0.565100
     20 C11        -17.8790     6.5240    25.7530 ca         1 QX3       0.015700
     21 C12        -18.6420     7.7490    26.0560 cx         1 QX3      -0.095400
     22 C14        -18.2640     9.0810    25.4440 cx         1 QX3      -0.113900
     23 C9         -15.8700     5.3780    25.0630 ca         1 QX3       0.332900
     24 N2         -16.4500     4.1720    25.0880 nb         1 QX3      -0.653000
     25 H1         -20.4530     4.6400    25.5310 hn         1 QX3       0.155000
     26 H3         -23.5930     6.2120    27.1460 hc         1 QX3       0.059700
     27 H4         -22.1140     4.3520    26.9010 hc         1 QX3       0.063700
     28 H5         -18.2010     3.1550    25.5070 h4         1 QX3       0.021100
     29 H6         -15.9950     7.4890    25.3230 ha         1 QX3       0.124000
     30 H7         -17.0090     8.6970    27.2310 hc         1 QX3       0.075700
     31 H8         -18.6750     9.3350    27.6180 hc         1 QX3       0.075700
     32 H9         -21.6420     2.6300    28.6390 ha         1 QX3       0.125000
     33 H10        -23.2190     5.8630    32.0100 ha         1 QX3       0.130000
     34 H11        -21.2930     7.7620    28.4280 h1         1 QX3       0.049200
     35 H12        -22.9300     8.3600    28.1430 h1         1 QX3       0.049200
     36 H13        -22.9330     7.5650    30.3900 hn         1 QX3       0.485000
     37 H14        -19.7000     7.5950    26.2010 hc         1 QX3       0.083700
     38 H15        -17.4080     9.1060    24.7840 hc         1 QX3       0.075700
     39 H16        -19.0820     9.7260    25.1510 hc         1 QX3       0.075700
     40 H17        -14.8260     5.4070    24.7690 h4         1 QX3       0.022100
     41 H2         -22.1690     6.8330    26.3150 hc         1 QX3       0.059700
@<TRIPOS>BOND
     1     1     4 1   
     2     1     5 1   
     3     1    25 1   
     4     2     3 1   
     5     2    17 1   
     6     2    26 1   
     7     2    41 1   
     8     3     4 1   
     9     3     9 1   
    10     3    27 1   
    11     4    19 2   
    12     5     6 ar  
    13     5    20 ar  
    14     6    24 ar  
    15     6    28 1   
    16     7    20 ar  
    17     7    23 ar  
    18     7    29 1   
    19     8    21 1   
    20     8    22 1   
    21     8    30 1   
    22     8    31 1   
    23     9    14 ar  
    24     9    15 ar  
    25    10    11 1   
    26    10    12 ar  
    27    10    14 ar  
    28    12    13 1   
    29    12    16 ar  
    30    14    32 1   
    31    15    16 ar  
    32    15    18 1   
    33    16    33 1   
    34    17    18 1   
    35    17    34 1   
    36    17    35 1   
    37    18    36 1   
    38    20    21 1   
    39    21    22 1   
    40    21    37 1   
    41    22    38 1   
    42    22    39 1   
    43    23    24 ar  
    44    23    40 1   
@<TRIPOS>SUBSTRUCTURE
     1 QX3         1 TEMP              0 ****  ****    0 ROOT
