@<TRIPOS>MOLECULE
QX3
   41    44     1     0     0
SMALL
No Charge or Current Charge


@<TRIPOS>ATOM
      1 N1         -19.4110     5.9150    26.9020 ns         1 QX3      -0.173000
      2 C4         -21.8070     7.2540    28.6020 c6         1 QX3      -0.081400
      3 C5         -21.4820     5.7750    28.2410 c6         1 QX3      -0.079400
      4 C6         -19.9540     5.5480    28.1270 c          1 QX3       0.595100
      5 C7         -18.0830     5.8530    26.3830 ca         1 QX3      -0.096000
      6 C8         -17.0140     5.2130    27.0590 ca         1 QX3       0.327900
      7 C10        -16.5080     6.3670    24.6220 ca         1 QX3      -0.160000
      8 C13        -19.5870     8.3830    24.8600 cx         1 QX3      -0.113900
      9 C15        -22.1420     4.7810    29.2170 ca         1 QX3      -0.142300
     10 C17        -22.8860     2.5190    29.7430 ca         1 QX3       0.069000
     11 Cl1        -23.0740     0.8350    29.2480 cl         1 QX3      -0.187000
     12 C          -23.3070     2.9570    31.0160 ca         1 QX3       0.182000
     13 Cl         -24.0420     1.8390    32.1650 cl         1 QX3      -0.185000
     14 C16        -22.3050     3.4320    28.8470 ca         1 QX3      -0.040000
     15 C2         -22.5650     5.2110    30.4950 ca         1 QX3       0.362000
     16 C1         -23.1460     4.3020    31.3870 ca         1 QX3      -0.184000
     17 C3         -21.5970     7.5070    30.1120 c6         1 QX3       0.220800
     18 N          -22.4270     6.5500    30.8640 nu         1 QX3      -0.963200
     19 O          -19.3010     5.0500    29.0370 o          1 QX3      -0.565100
     20 C11        -17.8150     6.4480    25.1300 ca         1 QX3       0.015700
     21 C12        -18.8910     7.1450    24.3380 cx         1 QX3      -0.095400
     22 C14        -18.6550     8.4850    23.6780 cx         1 QX3      -0.113900
     23 C9         -15.5150     5.7140    25.3660 ca         1 QX3       0.332900
     24 N2         -15.7560     5.1430    26.5660 nb         1 QX3      -0.653000
     25 H1         -20.0820     6.3120    26.2560 hn         1 QX3       0.155000
     26 H3         -22.8530     7.4730    28.3460 hc         1 QX3       0.059700
     27 H4         -21.8880     5.6530    27.2270 hc         1 QX3       0.063700
     28 H5         -17.1510     4.7260    28.0210 h4         1 QX3       0.021100
     29 H6         -16.2570     6.8020    23.6590 ha         1 QX3       0.124000
     30 H7         -19.2490     8.8000    25.8050 hc         1 QX3       0.075700
     31 H8         -20.6550     8.4800    24.6750 hc         1 QX3       0.075700
     32 H9         -21.9790     3.0890    27.8680 ha         1 QX3       0.125000
     33 H10        -23.4760     4.6330    32.3660 ha         1 QX3       0.130000
     34 H11        -20.5330     7.3660    30.3570 h1         1 QX3       0.049200
     35 H12        -21.8610     8.5450    30.3650 h1         1 QX3       0.049200
     36 H13        -22.7170     6.7930    31.8140 hn         1 QX3       0.485000
     37 H14        -19.5060     6.4380    23.7850 hc         1 QX3       0.083700
     38 H15        -17.6980     8.9770    23.8350 hc         1 QX3       0.075700
     39 H16        -19.0950     8.6500    22.6970 hc         1 QX3       0.075700
     40 H17        -14.4960     5.6420    24.9890 h4         1 QX3       0.022100
     41 H2         -21.1930     7.9480    28.0120 hc         1 QX3       0.059700
@<TRIPOS>BOND
     1     1     4 1   
     2     1     5 1   
     3     1    25 1   
     4     2     3 1   
     5     2    17 1   
     6     2    26 1   
     7     2    41 1   
     8     3     4 1   
     9     3     9 1   
    10     3    27 1   
    11     4    19 2   
    12     5     6 ar  
    13     5    20 ar  
    14     6    24 ar  
    15     6    28 1   
    16     7    20 ar  
    17     7    23 ar  
    18     7    29 1   
    19     8    21 1   
    20     8    22 1   
    21     8    30 1   
    22     8    31 1   
    23     9    14 ar  
    24     9    15 ar  
    25    10    11 1   
    26    10    12 ar  
    27    10    14 ar  
    28    12    13 1   
    29    12    16 ar  
    30    14    32 1   
    31    15    16 ar  
    32    15    18 1   
    33    16    33 1   
    34    17    18 1   
    35    17    34 1   
    36    17    35 1   
    37    18    36 1   
    38    20    21 1   
    39    21    22 1   
    40    21    37 1   
    41    22    38 1   
    42    22    39 1   
    43    23    24 ar  
    44    23    40 1   
@<TRIPOS>SUBSTRUCTURE
     1 QX3         1 TEMP              0 ****  ****    0 ROOT
