@<TRIPOS>MOLECULE
QX5
   51    54     1     0     0
SMALL
abcg2


@<TRIPOS>ATOM
      1 C02        -50.1460   -29.3990     4.2640 ca         1 QX5       0.379000
      2 C03        -48.7380   -29.3660     4.1040 ca         1 QX5      -0.241600
      3 C04        -48.1150   -29.4580     2.7580 c          1 QX5       0.621700
      4 C06        -46.0510   -29.9540     1.5070 c5         1 QX5       0.164000
      5 C07        -44.5780   -29.4970     1.6800 c5         1 QX5      -0.204700
      6 C08        -43.9230   -29.8100     3.0490 c          1 QX5       0.717000
      7 C11        -43.8220   -30.2680     0.5600 c5         1 QX5      -0.004100
      8 C12        -44.6660   -31.4970     0.3520 ca         1 QX5      -0.087300
      9 C13        -44.3400   -32.6860    -0.2930 ca         1 QX5       0.126100
     10 C15        -45.2880   -33.7090    -0.3610 ca         1 QX5      -0.212000
     11 C16        -46.5480   -33.5360     0.2070 ca         1 QX5      -0.094000
     12 C17        -46.8860   -32.3450     0.8470 ca         1 QX5      -0.117000
     13 C18        -45.9310   -31.3400     0.9070 ca         1 QX5      -0.042300
     14 C20        -47.9530   -29.2160     5.2560 ca         1 QX5       0.000000
     15 C21        -48.4990   -29.1140     6.5160 ca         1 QX5      -0.240000
     16 C22        -49.8970   -29.1640     6.6730 ca         1 QX5       0.043000
     17 C24        -51.6840   -29.0910     8.4310 c          1 QX5       0.661100
     18 C26        -53.0580   -28.9210    10.4410 cx         1 QX5       0.067700
     19 C27        -53.1280   -29.4830    11.8290 cx         1 QX5      -0.136400
     20 C28        -53.7910   -30.2100    10.6880 cx         1 QX5      -0.136400
     21 C30        -50.7030   -29.3060     5.5510 ca         1 QX5      -0.247000
     22 N01        -50.9890   -29.5840     3.1940 nv         1 QX5      -1.097000
     23 N05        -46.8360   -29.8750     2.7160 ns         1 QX5      -0.467900
     24 N23        -50.3800   -29.0540     7.9770 ns         1 QX5      -0.162000
     25 N25        -51.7880   -28.9590     9.7840 ns         1 QX5      -0.511900
     26 O09        -42.8460   -29.2110     3.2780 o          1 QX5      -0.730000
     27 O10        -44.4800   -30.6410     3.8200 o          1 QX5      -0.730000
     28 O14        -43.0890   -32.8030    -0.8320 oh         1 QX5      -0.540100
     29 O19        -48.7380   -29.1610     1.7200 o          1 QX5      -0.696100
     30 O29        -52.6610   -29.2390     7.7010 o          1 QX5      -0.621100
     31 H061       -46.5340   -29.3050     0.7730 h1         1 QX5       0.061700
     32 H071       -44.4950   -28.4210     1.5290 hc         1 QX5       0.052700
     33 H111       -43.7770   -29.6720    -0.3570 hc         1 QX5       0.051700
     34 H112       -42.7920   -30.4950     0.8400 hc         1 QX5       0.051700
     35 H151       -45.0310   -34.6400    -0.8550 ha         1 QX5       0.092000
     36 H161       -47.2670   -34.3430     0.1470 ha         1 QX5       0.095000
     37 H171       -47.8650   -32.2100     1.2890 ha         1 QX5       0.120000
     38 H201       -46.8770   -29.1520     5.1610 ha         1 QX5       0.144000
     39 H211       -47.8620   -28.9850     7.3820 ha         1 QX5       0.108000
     40 H261       -53.6630   -28.0470    10.2280 h1         1 QX5       0.082700
     41 H271       -52.2190   -29.9100    12.2320 hc         1 QX5       0.076450
     42 H272       -53.7500   -28.9670    12.5470 hc         1 QX5       0.076450
     43 H281       -53.3180   -31.1140    10.3310 hc         1 QX5       0.076450
     44 H282       -54.8700   -30.1940    10.6200 hc         1 QX5       0.076450
     45 H301       -51.7740   -29.3420     5.6600 ha         1 QX5       0.140000
     46 H011       -51.9580   -29.3490     3.3410 hn         1 QX5       0.479500
     47 H012       -50.5960   -29.3400     2.2960 hn         1 QX5       0.479500
     48 H051       -46.3460   -30.2180     3.5350 hn         1 QX5       0.375500
     49 H231       -49.6630   -28.9620     8.6800 hn         1 QX5       0.142000
     50 H251       -50.9740   -28.7020    10.3210 hn         1 QX5       0.311500
     51 H141       -42.9800   -33.6810    -1.2210 ho         1 QX5       0.443000
@<TRIPOS>BOND
     1     1     2 ar  
     2     1    21 ar  
     3     1    22 1   
     4     2     3 1   
     5     2    14 ar  
     6     3    23 1   
     7     3    29 2   
     8     4     5 1   
     9     4    13 1   
    10     4    23 1   
    11     4    31 1   
    12     5     6 1   
    13     5     7 1   
    14     5    32 1   
    15     6    26 1   
    16     6    27 1   
    17     7     8 1   
    18     7    33 1   
    19     7    34 1   
    20     8     9 ar  
    21     8    13 ar  
    22     9    10 ar  
    23     9    28 1   
    24    10    11 ar  
    25    10    35 1   
    26    11    12 ar  
    27    11    36 1   
    28    12    13 ar  
    29    12    37 1   
    30    14    15 ar  
    31    14    38 1   
    32    15    16 ar  
    33    15    39 1   
    34    16    21 ar  
    35    16    24 1   
    36    17    24 1   
    37    17    25 1   
    38    17    30 2   
    39    18    19 1   
    40    18    20 1   
    41    18    25 1   
    42    18    40 1   
    43    19    20 1   
    44    19    41 1   
    45    19    42 1   
    46    20    43 1   
    47    20    44 1   
    48    21    45 1   
    49    22    46 1   
    50    22    47 1   
    51    23    48 1   
    52    24    49 1   
    53    25    50 1   
    54    28    51 1   
@<TRIPOS>SUBSTRUCTURE
     1 QX5         1 TEMP              0 ****  ****    0 ROOT
