@<TRIPOS>MOLECULE
QX5
   51    54     1     0     0
SMALL
No Charge or Current Charge


@<TRIPOS>ATOM
      1 C02        -50.0870   -28.7710     4.2450 ca         1 QX5       0.379000
      2 C03        -48.8400   -29.3800     3.9940 ca         1 QX5      -0.241600
      3 C04        -48.2140   -29.3680     2.6150 c          1 QX5       0.621700
      4 C06        -46.5090   -30.3310     1.1310 c5         1 QX5       0.164000
      5 C07        -45.2120   -29.4370     1.3630 c5         1 QX5      -0.204700
      6 C08        -44.7540   -29.3780     2.8490 c          1 QX5       0.717000
      7 C11        -44.0660   -30.1030     0.4970 c5         1 QX5      -0.004100
      8 C12        -44.5630   -31.5240     0.3770 ca         1 QX5      -0.087300
      9 C13        -43.8270   -32.6440    -0.0480 ca         1 QX5       0.126100
     10 C15        -44.4600   -33.8990    -0.1040 ca         1 QX5      -0.212000
     11 C16        -45.8170   -34.0240     0.2590 ca         1 QX5      -0.094000
     12 C17        -46.5420   -32.8920     0.6780 ca         1 QX5      -0.117000
     13 C18        -45.8930   -31.6470     0.7350 ca         1 QX5      -0.042300
     14 C20        -48.1700   -29.9940     5.0790 ca         1 QX5       0.000000
     15 C21        -48.7420   -30.0010     6.3610 ca         1 QX5      -0.240000
     16 C22        -49.9840   -29.3990     6.6020 ca         1 QX5       0.043000
     17 C24        -51.6490   -28.9480     8.5020 c          1 QX5       0.661100
     18 C26        -52.8280   -28.8540    10.6910 cx         1 QX5       0.067700
     19 C27        -52.9150   -29.4870    12.0580 cx         1 QX5      -0.136400
     20 C28        -53.8950   -29.8810    10.9800 cx         1 QX5      -0.136400
     21 C30        -50.6500   -28.7820     5.5270 ca         1 QX5      -0.247000
     22 N01        -50.7950   -28.1690     3.2510 nv         1 QX5      -1.097000
     23 N05        -47.2680   -30.3460     2.3850 ns         1 QX5      -0.467900
     24 N23        -50.4940   -29.4510     7.9260 ns         1 QX5      -0.162000
     25 N25        -51.7370   -29.2480     9.8430 ns         1 QX5      -0.511900
     26 O09        -44.6690   -28.2820     3.3840 o          1 QX5      -0.730000
     27 O10        -44.4680   -30.4050     3.4480 o          1 QX5      -0.730000
     28 O14        -42.5170   -32.5260    -0.4070 oh         1 QX5      -0.540100
     29 O19        -48.5000   -28.5340     1.7610 o          1 QX5      -0.696100
     30 O29        -52.5140   -28.3070     7.9200 o          1 QX5      -0.621100
     31 H061       -47.0990   -29.9550     0.2830 h1         1 QX5       0.061700
     32 H071       -45.3980   -28.4090     1.0360 hc         1 QX5       0.052700
     33 H111       -43.9880   -29.6320    -0.4890 hc         1 QX5       0.051700
     34 H112       -43.0800   -30.0300     0.9700 hc         1 QX5       0.051700
     35 H151       -43.9100   -34.7790    -0.4290 ha         1 QX5       0.092000
     36 H161       -46.3060   -34.9950     0.2120 ha         1 QX5       0.095000
     37 H171       -47.5910   -32.9800     0.9510 ha         1 QX5       0.120000
     38 H201       -47.1890   -30.4500     4.9550 ha         1 QX5       0.144000
     39 H211       -48.2040   -30.4770     7.1780 ha         1 QX5       0.108000
     40 H261       -53.1300   -27.8100    10.5890 h1         1 QX5       0.082700
     41 H271       -52.1530   -30.2110    12.3390 hc         1 QX5       0.076450
     42 H272       -53.2800   -28.8710    12.8750 hc         1 QX5       0.076450
     43 H281       -53.7900   -30.8660    10.5320 hc         1 QX5       0.076450
     44 H282       -54.9200   -29.5290    11.0720 hc         1 QX5       0.076450
     45 H301       -51.6150   -28.3100     5.6710 ha         1 QX5       0.140000
     46 H011       -51.5060   -27.4870     3.5020 hn         1 QX5       0.479500
     47 H012       -50.2730   -27.9910     2.3890 hn         1 QX5       0.479500
     48 H051       -47.0930   -31.0110     3.1250 hn         1 QX5       0.375500
     49 H231       -49.8950   -29.9520     8.5670 hn         1 QX5       0.142000
     50 H251       -50.9710   -29.7780    10.2400 hn         1 QX5       0.311500
     51 H141       -42.1910   -33.4130    -0.6680 ho         1 QX5       0.443000
@<TRIPOS>BOND
     1     1     2 ar  
     2     1    21 ar  
     3     1    22 1   
     4     2     3 1   
     5     2    14 ar  
     6     3    23 1   
     7     3    29 2   
     8     4     5 1   
     9     4    13 1   
    10     4    23 1   
    11     4    31 1   
    12     5     6 1   
    13     5     7 1   
    14     5    32 1   
    15     6    26 1   
    16     6    27 1   
    17     7     8 1   
    18     7    33 1   
    19     7    34 1   
    20     8     9 ar  
    21     8    13 ar  
    22     9    10 ar  
    23     9    28 1   
    24    10    11 ar  
    25    10    35 1   
    26    11    12 ar  
    27    11    36 1   
    28    12    13 ar  
    29    12    37 1   
    30    14    15 ar  
    31    14    38 1   
    32    15    16 ar  
    33    15    39 1   
    34    16    21 ar  
    35    16    24 1   
    36    17    24 1   
    37    17    25 1   
    38    17    30 2   
    39    18    19 1   
    40    18    20 1   
    41    18    25 1   
    42    18    40 1   
    43    19    20 1   
    44    19    41 1   
    45    19    42 1   
    46    20    43 1   
    47    20    44 1   
    48    21    45 1   
    49    22    46 1   
    50    22    47 1   
    51    23    48 1   
    52    24    49 1   
    53    25    50 1   
    54    28    51 1   
@<TRIPOS>SUBSTRUCTURE
     1 QX5         1 TEMP              0 ****  ****    0 ROOT
