@<TRIPOS>MOLECULE
QX8
   50    53     1     0     0
SMALL
No Charge or Current Charge


@<TRIPOS>ATOM
      1 C1         -30.4240    13.3830    -2.4180 cy         1 QX8      -0.189400
      2 C3         -21.9280    18.9910    -6.1650 ca         1 QX8      -0.073300
      3 C4         -26.2940    18.0990    -5.9400 c6         1 QX8       0.163800
      4 C5         -24.8400    18.2280    -6.4970 c6         1 QX8       0.166300
      5 C6         -21.6280    19.3720    -4.8420 ca         1 QX8      -0.098500
      6 C7         -25.3030    20.5350    -7.1740 c6         1 QX8       0.166300
      7 C8         -26.7560    20.4080    -6.6140 c6         1 QX8       0.163800
      8 C9         -22.9540    19.7790    -6.9750 c3         1 QX8       0.216100
      9 C11        -20.6860    18.6480    -4.0900 ca         1 QX8      -0.088500
     10 C12        -29.8850    14.8050    -2.7500 cy         1 QX8       0.092000
     11 C10        -30.6690    13.2510    -3.9400 c          1 QX8       0.577000
     12 N11        -30.1700    14.5460    -4.1790 nj         1 QX8      -0.244400
     13 C14        -29.9780    15.3630    -5.3190 ca         1 QX8      -0.006000
     14 C15        -29.4380    16.6570    -5.1760 ca         1 QX8      -0.161000
     15 C16        -29.2370    17.4820    -6.3010 ca         1 QX8      -0.058300
     16 C17        -29.5830    17.0020    -7.5790 ca         1 QX8      -0.117000
     17 C18        -30.1240    15.7150    -7.7290 ca         1 QX8      -0.086000
     18 C19        -30.3210    14.8980    -6.6040 ca         1 QX8      -0.142000
     19 O1         -31.1170    12.3740    -4.6660 o          1 QX8      -0.501000
     20 C2         -28.6470    18.8820    -6.1420 c3         1 QX8       0.213100
     21 N3         -27.2590    19.0000    -6.6470 n3         1 QX8      -0.717600
     22 N6         -24.3390    19.6380    -6.4660 n3         1 QX8      -0.728600
     23 C13        -20.0400    17.5380    -4.6580 ca         1 QX8      -0.017900
     24 C20        -20.3340    17.1500    -5.9760 ca         1 QX8      -0.088500
     25 C21        -21.2750    17.8750    -6.7280 ca         1 QX8      -0.098500
     26 Br1        -18.7610    16.5510    -3.6360 br         1 QX8      -0.103100
     27 H1         -31.3580    13.3310    -1.8520 hc         1 QX8       0.086700
     28 H2         -29.6940    12.6520    -2.0600 hc         1 QX8       0.086700
     29 H3         -26.2780    18.3330    -4.8650 h1         1 QX8       0.039950
     30 H4         -26.6060    17.0490    -6.0350 h1         1 QX8       0.039950
     31 H5         -24.8260    17.8440    -7.5280 h1         1 QX8       0.040950
     32 H6         -24.1870    17.5730    -5.9030 h1         1 QX8       0.040950
     33 H7         -22.1300    20.2290    -4.3980 ha         1 QX8       0.122500
     34 H8         -25.3220    20.2970    -8.2480 h1         1 QX8       0.040950
     35 H9         -24.9840    21.5840    -7.0840 h1         1 QX8       0.040950
     36 H10        -26.7660    20.7880    -5.5810 h1         1 QX8       0.039950
     37 H11        -27.4170    21.0610    -7.2020 h1         1 QX8       0.039950
     38 H12        -22.9060    19.4610    -8.0260 h1         1 QX8       0.041200
     39 H13        -22.6580    20.8370    -6.9520 h1         1 QX8       0.041200
     40 H14        -20.4600    18.9470    -3.0690 ha         1 QX8       0.128000
     41 H15        -28.8170    14.9500    -2.5510 h1         1 QX8       0.059700
     42 H16        -30.4810    15.6290    -2.3420 h1         1 QX8       0.059700
     43 H17        -29.1670    17.0280    -4.1910 ha         1 QX8       0.109000
     44 H18        -29.4270    17.6290    -8.4540 ha         1 QX8       0.126000
     45 H19        -30.3880    15.3500    -8.7200 ha         1 QX8       0.115000
     46 H20        -30.7390    13.9040    -6.7390 ha         1 QX8       0.138000
     47 H21        -28.6860    19.1700    -5.0820 h1         1 QX8       0.037700
     48 H22        -29.2970    19.5840    -6.6830 h1         1 QX8       0.037700
     49 H25        -19.8340    16.2900    -6.4150 ha         1 QX8       0.128000
     50 H26        -21.4990    17.5680    -7.7470 ha         1 QX8       0.122500
@<TRIPOS>BOND
     1     1    10 1   
     2     1    11 1   
     3     1    27 1   
     4     1    28 1   
     5     2     5 ar  
     6     2     8 1   
     7     2    25 ar  
     8     3     4 1   
     9     3    21 1   
    10     3    29 1   
    11     3    30 1   
    12     4    22 1   
    13     4    31 1   
    14     4    32 1   
    15     5     9 ar  
    16     5    33 1   
    17     6     7 1   
    18     6    22 1   
    19     6    34 1   
    20     6    35 1   
    21     7    21 1   
    22     7    36 1   
    23     7    37 1   
    24     8    22 1   
    25     8    38 1   
    26     8    39 1   
    27     9    23 ar  
    28     9    40 1   
    29    10    12 1   
    30    10    41 1   
    31    10    42 1   
    32    11    12 1   
    33    11    19 2   
    34    12    13 1   
    35    13    14 ar  
    36    13    18 ar  
    37    14    15 ar  
    38    14    43 1   
    39    15    16 ar  
    40    15    20 1   
    41    16    17 ar  
    42    16    44 1   
    43    17    18 ar  
    44    17    45 1   
    45    18    46 1   
    46    20    21 1   
    47    20    47 1   
    48    20    48 1   
    49    23    24 ar  
    50    23    26 1   
    51    24    25 ar  
    52    24    49 1   
    53    25    50 1   
@<TRIPOS>SUBSTRUCTURE
     1 QX8         1 TEMP              0 ****  ****    0 ROOT
