@<TRIPOS>MOLECULE
QX8
   50    53     1     0     0
SMALL
bcc


@<TRIPOS>ATOM
      1 C1         -31.0100    13.4570    -2.5140 cy         1 QX8      -0.189400
      2 C3         -21.9330    19.0070    -6.3640 ca         1 QX8      -0.073300
      3 C4         -26.1100    17.9740    -5.8830 c6         1 QX8       0.163800
      4 C5         -24.7910    18.1010    -6.6200 c6         1 QX8       0.166300
      5 C6         -21.9010    19.2160    -4.9870 ca         1 QX8      -0.116500
      6 C7         -25.3210    20.3450    -7.1950 c6         1 QX8       0.166300
      7 C8         -26.6340    20.2290    -6.4440 c6         1 QX8       0.163800
      8 C9         -23.0220    19.6240    -7.2040 c3         1 QX8       0.216100
      9 C11        -20.8890    18.6840    -4.2040 ca         1 QX8      -0.106500
     10 C12        -30.3220    14.8180    -2.7330 cy         1 QX8       0.092000
     11 C10        -31.0530    13.3620    -4.0290 c          1 QX8       0.719500
     12 N11        -30.4430    14.5760    -4.1700 nj         1 QX8      -0.404000
     13 C14        -30.0610    15.3580    -5.2500 ca         1 QX8       0.086600
     14 C15        -29.4370    16.5830    -5.0050 ca         1 QX8      -0.179000
     15 C16        -29.0380    17.3990    -6.0530 ca         1 QX8      -0.058300
     16 C17        -29.2550    16.9810    -7.3640 ca         1 QX8      -0.135000
     17 C18        -29.8740    15.7650    -7.6060 ca         1 QX8      -0.104000
     18 C19        -30.2820    14.9460    -6.5640 ca         1 QX8      -0.160000
     19 O1         -31.4530    12.5610    -4.8380 o          1 QX8      -0.576500
     20 C2         -28.3860    18.7310    -5.7830 c3         1 QX8       0.213100
     21 N3         -27.1090    18.8590    -6.4540 n3         1 QX8      -0.717600
     22 N6         -24.3270    19.4740    -6.5990 n3         1 QX8      -0.728600
     23 C13        -19.8920    17.9300    -4.8080 ca         1 QX8      -0.017900
     24 C20        -19.8990    17.7030    -6.1750 ca         1 QX8      -0.106500
     25 C21        -20.9250    18.2430    -6.9410 ca         1 QX8      -0.116500
     26 BR1        -18.5110    17.1960    -3.7460 br         1 QX8      -0.103100
     27 H1         -31.9890    13.4980    -2.0390 hc         1 QX8       0.086700
     28 H2         -30.4010    12.6940    -2.0300 hc         1 QX8       0.086700
     29 H3         -25.9480    18.1900    -4.8130 h1         1 QX8       0.039950
     30 H4         -26.4570    16.9420    -5.9540 h1         1 QX8       0.039950
     31 H5         -24.9110    17.7320    -7.6540 h1         1 QX8       0.040950
     32 H6         -24.0540    17.4590    -6.1330 h1         1 QX8       0.040950
     33 H7         -22.6840    19.7960    -4.5160 ha         1 QX8       0.140500
     34 H8         -25.4890    20.1090    -8.2590 h1         1 QX8       0.040950
     35 H9         -24.9700    21.3780    -7.1430 h1         1 QX8       0.040950
     36 H10        -26.4940    20.6080    -5.4170 h1         1 QX8       0.039950
     37 H11        -27.3790    20.8680    -6.9250 h1         1 QX8       0.039950
     38 H12        -22.9800    19.2070    -8.2240 h1         1 QX8       0.041200
     39 H13        -22.8190    20.6950    -7.3050 h1         1 QX8       0.041200
     40 H14        -20.8840    18.8600    -3.1360 ha         1 QX8       0.146000
     41 H15        -29.2910    14.8810    -2.3870 h1         1 QX8       0.059700
     42 H16        -30.8830    15.6870    -2.3880 h1         1 QX8       0.059700
     43 H17        -29.2560    16.9040    -3.9860 ha         1 QX8       0.127000
     44 H18        -28.9370    17.6070    -8.1880 ha         1 QX8       0.144000
     45 H19        -30.0470    15.4430    -8.6250 ha         1 QX8       0.133000
     46 H20        -30.7620    14.0020    -6.7750 ha         1 QX8       0.156000
     47 H21        -28.2980    18.8860    -4.6950 h1         1 QX8       0.037700
     48 H22        -29.0420    19.5240    -6.1550 h1         1 QX8       0.037700
     49 H25        -19.1280    17.1110    -6.6480 ha         1 QX8       0.146000
     50 H26        -20.9360    18.0570    -8.0080 ha         1 QX8       0.140500
@<TRIPOS>BOND
     1     1    10 1   
     2     1    11 1   
     3     1    27 1   
     4     1    28 1   
     5     2     5 ar  
     6     2     8 1   
     7     2    25 ar  
     8     3     4 1   
     9     3    21 1   
    10     3    29 1   
    11     3    30 1   
    12     4    22 1   
    13     4    31 1   
    14     4    32 1   
    15     5     9 ar  
    16     5    33 1   
    17     6     7 1   
    18     6    22 1   
    19     6    34 1   
    20     6    35 1   
    21     7    21 1   
    22     7    36 1   
    23     7    37 1   
    24     8    22 1   
    25     8    38 1   
    26     8    39 1   
    27     9    23 ar  
    28     9    40 1   
    29    10    12 1   
    30    10    41 1   
    31    10    42 1   
    32    11    12 1   
    33    11    19 2   
    34    12    13 1   
    35    13    14 ar  
    36    13    18 ar  
    37    14    15 ar  
    38    14    43 1   
    39    15    16 ar  
    40    15    20 1   
    41    16    17 ar  
    42    16    44 1   
    43    17    18 ar  
    44    17    45 1   
    45    18    46 1   
    46    20    21 1   
    47    20    47 1   
    48    20    48 1   
    49    23    24 ar  
    50    23    26 1   
    51    24    25 ar  
    52    24    49 1   
    53    25    50 1   
@<TRIPOS>SUBSTRUCTURE
     1 QX8         1 TEMP              0 ****  ****    0 ROOT
