@<TRIPOS>MOLECULE
QX9
   37    39     1     0     0
SMALL
abcg2


@<TRIPOS>ATOM
      1 N1         -19.9060     5.6130    27.0120 ns         1 QX9      -0.157000
      2 C4         -16.8650     6.9710    25.3730 ca         1 QX9      -0.086000
      3 C5         -16.0770     5.8000    25.4300 ca         1 QX9       0.340900
      4 C6         -17.7410     4.6290    26.4860 ca         1 QX9       0.312900
      5 C7         -18.6020     5.7040    26.4940 ca         1 QX9      -0.068000
      6 C8         -20.3450     4.8190    28.0310 c          1 QX9       0.599100
      7 C10        -22.2700     4.4540    29.6260 ca         1 QX9      -0.066300
      8 C13        -22.9970     3.6050    32.1990 ca         1 QX9      -0.095000
      9 C15        -22.5430     3.1090    29.8700 ca         1 QX9      -0.078000
     10 C17        -18.9510     8.1210    25.9020 ca         1 QX9      -0.115000
     11 C14        -22.9000     2.7040    31.1480 ca         1 QX9       0.126000
     12 C12        -22.7270     4.9460    31.9480 ca         1 QX9      -0.100000
     13 C11        -22.3670     5.3680    30.6740 ca         1 QX9      -0.097000
     14 C9         -21.8530     4.9040    28.2550 c3         1 QX9      -0.109100
     15 O          -19.6160     4.0850    28.6820 o          1 QX9      -0.560100
     16 N          -16.4900     4.6740    25.9670 nb         1 QX9      -0.641000
     17 C16        -18.1720     6.9410    25.9310 ca         1 QX9      -0.028000
     18 C3         -16.3890     8.1690    24.7900 ca         1 QX9      -0.077000
     19 C2         -17.1730     9.2890    24.7680 ca         1 QX9      -0.111000
     20 C1         -18.4740     9.2810    25.3350 ca         1 QX9      -0.055300
     21 C          -19.2980    10.5360    25.3110 c3         1 QX9      -0.051800
     22 H1         -20.5940     6.2230    26.5990 hn         1 QX9       0.150000
     23 H2         -15.0760     5.8170    25.0100 h4         1 QX9       0.022100
     24 H3         -18.0520     3.6850    26.9070 h4         1 QX9       0.045100
     25 H4         -23.2800     3.2680    33.1860 ha         1 QX9       0.131000
     26 H5         -22.4770     2.3840    29.0690 ha         1 QX9       0.131000
     27 H6         -19.9380     8.1330    26.3460 ha         1 QX9       0.106000
     28 H7         -22.8020     5.6630    32.7560 ha         1 QX9       0.119000
     29 H8         -22.1610     6.4150    30.4890 ha         1 QX9       0.114000
     30 H9         -22.1910     5.9250    28.0690 hc         1 QX9       0.066700
     31 H10        -22.3130     4.2720    27.4900 hc         1 QX9       0.066700
     32 H11        -15.3930     8.1820    24.3640 ha         1 QX9       0.120000
     33 H12        -16.8020    10.2030    24.3200 ha         1 QX9       0.117000
     34 H13        -19.4580    10.8730    24.2840 hc         1 QX9       0.046367
     35 H14        -20.2690    10.3830    25.7810 hc         1 QX9       0.046367
     36 H15        -18.7830    11.3450    25.8360 hc         1 QX9       0.046367
     37 CL         -23.2390     1.0080    31.4390 cl         1 QX9      -0.211000
@<TRIPOS>BOND
     1     1     5 1   
     2     1     6 1   
     3     1    22 1   
     4     2     3 ar  
     5     2    17 ar  
     6     2    18 ar  
     7     3    16 ar  
     8     3    23 1   
     9     4     5 ar  
    10     4    16 ar  
    11     4    24 1   
    12     5    17 ar  
    13     6    14 1   
    14     6    15 2   
    15     7     9 ar  
    16     7    13 ar  
    17     7    14 1   
    18     8    11 ar  
    19     8    12 ar  
    20     8    25 1   
    21     9    11 ar  
    22     9    26 1   
    23    10    17 ar  
    24    10    20 ar  
    25    10    27 1   
    26    11    37 1   
    27    12    13 ar  
    28    12    28 1   
    29    13    29 1   
    30    14    30 1   
    31    14    31 1   
    32    18    19 ar  
    33    18    32 1   
    34    19    20 ar  
    35    19    33 1   
    36    20    21 1   
    37    21    34 1   
    38    21    35 1   
    39    21    36 1   
@<TRIPOS>SUBSTRUCTURE
     1 QX9         1 TEMP              0 ****  ****    0 ROOT
