@<TRIPOS>MOLECULE
QX9
   37    39     1     0     0
SMALL
No Charge or Current Charge


@<TRIPOS>ATOM
      1 N1         -19.9650     5.1180    26.7710 ns         1 QX9      -0.157000
      2 C4         -16.9180     6.9530    25.6220 ca         1 QX9      -0.086000
      3 C5         -16.0660     5.8540    25.4020 ca         1 QX9       0.340900
      4 C6         -17.7040     4.3520    26.0550 ca         1 QX9       0.312900
      5 C7         -18.6400     5.3860    26.3130 ca         1 QX9      -0.068000
      6 C8         -20.5480     3.9730    27.2980 c          1 QX9       0.599100
      7 C10        -22.2150     4.3860    29.1340 ca         1 QX9      -0.066300
      8 C13        -22.5310     4.8740    31.8940 ca         1 QX9      -0.095000
      9 C15        -22.3520     3.3110    30.0350 ca         1 QX9      -0.078000
     10 C17        -19.0870     7.8280    26.3090 ca         1 QX9      -0.115000
     11 C14        -22.5110     3.5560    31.4090 ca         1 QX9       0.126000
     12 C12        -22.3930     5.9510    31.0010 ca         1 QX9      -0.100000
     13 C11        -22.2340     5.7070    29.6250 ca         1 QX9      -0.097000
     14 C9         -22.0340     4.1230    27.6430 c3         1 QX9      -0.109100
     15 O          -19.9390     2.9310    27.5090 o          1 QX9      -0.560100
     16 N          -16.4450     4.5740    25.6100 nb         1 QX9      -0.641000
     17 C16        -18.2320     6.7240    26.0850 ca         1 QX9      -0.028000
     18 C3         -16.4680     8.2650    25.3830 ca         1 QX9      -0.077000
     19 C2         -17.3260     9.3540    25.6070 ca         1 QX9      -0.111000
     20 C1         -18.6360     9.1410    26.0720 ca         1 QX9      -0.055300
     21 C          -19.5650    10.3210    26.3140 c3         1 QX9      -0.051800
     22 H1         -20.5940     5.9060    26.6940 hn         1 QX9       0.150000
     23 H2         -15.0470     6.0020    25.0450 h4         1 QX9       0.022100
     24 H3         -17.9620     3.3040    26.1840 h4         1 QX9       0.045100
     25 H4         -22.6540     5.0590    32.9590 ha         1 QX9       0.131000
     26 H5         -22.3340     2.2870    29.6730 ha         1 QX9       0.131000
     27 H6         -20.1020     7.6840    26.6680 ha         1 QX9       0.106000
     28 H7         -22.4080     6.9720    31.3750 ha         1 QX9       0.119000
     29 H8         -22.1270     6.5480    28.9430 ha         1 QX9       0.114000
     30 H9         -22.4620     4.9600    27.0790 hc         1 QX9       0.066700
     31 H10        -22.5540     3.1980    27.3670 hc         1 QX9       0.066700
     32 H11        -15.4560     8.4420    25.0250 ha         1 QX9       0.120000
     33 H12        -16.9700    10.3640    25.4180 ha         1 QX9       0.117000
     34 H13        -20.1990    10.5030    25.4390 hc         1 QX9       0.046367
     35 H14        -20.2220    10.1410    27.1730 hc         1 QX9       0.046367
     36 H15        -19.0030    11.2400    26.5180 hc         1 QX9       0.046367
     37 Cl         -22.6810     2.2080    32.5270 cl         1 QX9      -0.211000
@<TRIPOS>BOND
     1     1     5 1   
     2     1     6 1   
     3     1    22 1   
     4     2     3 ar  
     5     2    17 ar  
     6     2    18 ar  
     7     3    16 ar  
     8     3    23 1   
     9     4     5 ar  
    10     4    16 ar  
    11     4    24 1   
    12     5    17 ar  
    13     6    14 1   
    14     6    15 2   
    15     7     9 ar  
    16     7    13 ar  
    17     7    14 1   
    18     8    11 ar  
    19     8    12 ar  
    20     8    25 1   
    21     9    11 ar  
    22     9    26 1   
    23    10    17 ar  
    24    10    20 ar  
    25    10    27 1   
    26    11    37 1   
    27    12    13 ar  
    28    12    28 1   
    29    13    29 1   
    30    14    30 1   
    31    14    31 1   
    32    18    19 ar  
    33    18    32 1   
    34    19    20 ar  
    35    19    33 1   
    36    20    21 1   
    37    21    34 1   
    38    21    35 1   
    39    21    36 1   
@<TRIPOS>SUBSTRUCTURE
     1 QX9         1 TEMP              0 ****  ****    0 ROOT
