@<TRIPOS>MOLECULE
QXB
   15    15     1     0     0
SMALL
bcc


@<TRIPOS>ATOM
      1 C1          21.7570    31.2780    -8.8950 c5         1 QXB      -0.067900
      2 C2          22.2160    32.5100    -9.6810 c5         1 QXB      -0.067900
      3 C3          21.1420    33.5800    -9.5110 c5         1 QXB      -0.171100
      4 C           20.3180    31.0220    -9.3160 c5         1 QXB      -0.171100
      5 S           19.5760    32.6700    -9.3660 s6         1 QXB       0.955000
      6 H1          22.3810    30.4110    -9.1060 hc         1 QXB       0.064700
      7 H2          21.8100    31.4690    -7.8210 hc         1 QXB       0.064700
      8 H3          22.3240    32.2520   -10.7360 hc         1 QXB       0.064700
      9 H4          23.1800    32.8780    -9.3310 hc         1 QXB       0.064700
     10 H5          21.2670    34.1420    -8.5860 h1         1 QXB       0.109200
     11 H6          21.0630    34.2720   -10.3480 h1         1 QXB       0.109200
     12 H7          19.7390    30.4020    -8.6330 h1         1 QXB       0.109200
     13 H8          20.2660    30.6080   -10.3230 h1         1 QXB       0.109200
     14 O1          18.7650    32.8380   -10.5710 o          1 QXB      -0.584800
     15 O           18.9610    32.9660    -8.0720 o          1 QXB      -0.584800
@<TRIPOS>BOND
     1     1     2 1   
     2     1     4 1   
     3     1     6 1   
     4     1     7 1   
     5     2     3 1   
     6     2     8 1   
     7     2     9 1   
     8     3     5 1   
     9     3    10 1   
    10     3    11 1   
    11     4     5 1   
    12     4    12 1   
    13     4    13 1   
    14     5    14 2   
    15     5    15 2   
@<TRIPOS>SUBSTRUCTURE
     1 QXB         1 TEMP              0 ****  ****    0 ROOT
