@<TRIPOS>MOLECULE
QXB
   15    15     1     0     0
SMALL
No Charge or Current Charge


@<TRIPOS>ATOM
      1 C1          21.7970    31.2940    -8.8610 c5         1 QXB      -0.067900
      2 C2          22.2160    32.4910    -9.7650 c5         1 QXB      -0.067900
      3 C3          21.1490    33.5780    -9.4300 c5         1 QXB      -0.281900
      4 C           20.3250    31.0200    -9.2960 c5         1 QXB      -0.281900
      5 S           19.5210    32.6890    -9.4100 s6         1 QXB       1.035000
      6 H1          22.4380    30.4180    -9.0180 hc         1 QXB       0.064700
      7 H2          21.8670    31.5520    -7.7970 hc         1 QXB       0.064700
      8 H3          22.1980    32.2160   -10.8280 hc         1 QXB       0.064700
      9 H4          23.2330    32.8360    -9.5440 hc         1 QXB       0.064700
     10 H5          21.2790    34.0010    -8.4270 h1         1 QXB       0.109200
     11 H6          21.0860    34.3840   -10.1690 h1         1 QXB       0.109200
     12 H7          19.7540    30.4170    -8.5810 h1         1 QXB       0.109200
     13 H8          20.2550    30.5780   -10.2960 h1         1 QXB       0.109200
     14 O1          18.8470    32.8310   -10.7070 o          1 QXB      -0.514000
     15 O           18.8000    32.9930    -8.1670 o          1 QXB      -0.514000
@<TRIPOS>BOND
     1     1     2 1   
     2     1     4 1   
     3     1     6 1   
     4     1     7 1   
     5     2     3 1   
     6     2     8 1   
     7     2     9 1   
     8     3     5 1   
     9     3    10 1   
    10     3    11 1   
    11     4     5 1   
    12     4    12 1   
    13     4    13 1   
    14     5    14 2   
    15     5    15 2   
@<TRIPOS>SUBSTRUCTURE
     1 QXB         1 TEMP              0 ****  ****    0 ROOT
