@<TRIPOS>MOLECULE
QXC
   28    30     1     0     0
SMALL
No Charge or Current Charge


@<TRIPOS>ATOM
      1 C16        -47.0450   -32.3390    -0.3380 ca         1 QXC       0.347900
      2 C15        -46.2470   -32.9880    -1.2950 ca         1 QXC      -0.164000
      3 C14        -44.8510   -32.9690    -1.1490 ca         1 QXC      -0.064000
      4 C13        -44.3110   -32.2960    -0.0410 ca         1 QXC      -0.156000
      5 C12        -45.1740   -31.6680     0.8790 ca         1 QXC       0.334300
      6 C11        -46.4880   -29.0640     4.8820 ca         1 QXC      -0.258800
      7 C10        -47.9060   -29.1240     4.6690 cc         1 QXC      -0.199200
      8 C01        -44.5850   -30.9250     2.1020 c3         1 QXC       0.184500
      9 C03        -45.4120   -29.5830     4.1510 ca         1 QXC       0.438900
     10 C05        -44.0050   -28.6690     5.7130 ca         1 QXC       0.176900
     11 C07        -46.2520   -28.3500     6.0290 ca         1 QXC       0.148500
     12 C09        -48.4900   -28.4300     5.7160 cd         1 QXC      -0.184100
     13 N02        -45.6080   -30.3090     2.9880 nu         1 QXC      -0.922100
     14 N04        -44.1490   -29.3840     4.5720 nb         1 QXC      -0.309000
     15 N06        -44.9970   -28.1380     6.4690 nb         1 QXC      -0.236000
     16 N08        -47.4640   -27.9450     6.5670 na         1 QXC      -0.324400
     17 N17        -46.5300   -31.6890     0.7310 nb         1 QXC      -0.695000
     18 H161       -48.1310   -32.3390    -0.4300 h4         1 QXC       0.021100
     19 H151       -46.7110   -33.4950    -2.1360 ha         1 QXC       0.127000
     20 H141       -44.2060   -33.4630    -1.8730 ha         1 QXC       0.122000
     21 H131       -43.2350   -32.2600     0.1080 ha         1 QXC       0.128000
     22 H012       -43.9010   -30.1480     1.7310 h1         1 QXC       0.066200
     23 H011       -43.9800   -31.6400     2.6760 h1         1 QXC       0.066200
     24 H051       -42.9870   -28.5030     6.0600 h5         1 QXC       0.042100
     25 H091       -49.5450   -28.2470     5.9170 h4         1 QXC       0.216000
     26 H021       -46.5790   -30.4420     2.6970 hn         1 QXC       0.529000
     27 H081       -47.5840   -27.4010     7.4160 hn         1 QXC       0.360000
     28 H101       -48.4420   -29.6100     3.8550 ha         1 QXC       0.204000
@<TRIPOS>BOND
     1     1     2 ar  
     2     1    17 ar  
     3     1    18 1   
     4     2     3 ar  
     5     2    19 1   
     6     3     4 ar  
     7     3    20 1   
     8     4     5 ar  
     9     4    21 1   
    10     5     8 1   
    11     5    17 ar  
    12     6     7 1   
    13     6     9 ar  
    14     6    11 ar  
    15     7    12 2   
    16     7    28 1   
    17     8    13 1   
    18     8    22 1   
    19     8    23 1   
    20     9    13 1   
    21     9    14 ar  
    22    10    14 ar  
    23    10    15 ar  
    24    10    24 1   
    25    11    15 ar  
    26    11    16 1   
    27    12    16 1   
    28    12    25 1   
    29    13    26 1   
    30    16    27 1   
@<TRIPOS>SUBSTRUCTURE
     1 QXC         1 TEMP              0 ****  ****    0 ROOT
