@<TRIPOS>MOLECULE
QXC
   28    30     1     0     0
SMALL
abcg2


@<TRIPOS>ATOM
      1 C16        -46.9940   -32.3480    -0.2680 ca         1 QXC       0.347900
      2 C15        -46.2070   -32.9660    -1.2260 ca         1 QXC      -0.164000
      3 C14        -44.8230   -32.9040    -1.0810 ca         1 QXC      -0.064000
      4 C13        -44.2930   -32.2330     0.0070 ca         1 QXC      -0.156000
      5 C12        -45.1630   -31.6400     0.9240 ca         1 QXC       0.334300
      6 C11        -46.5690   -29.1140     4.7790 ca         1 QXC      -0.258800
      7 C10        -47.9960   -29.0900     4.6660 cc         1 QXC      -0.199200
      8 C01        -44.6040   -30.9080     2.1220 c3         1 QXC       0.184500
      9 C03        -45.4810   -29.6430     4.0460 ca         1 QXC       0.438900
     10 C05        -44.0540   -28.7520     5.6280 ca         1 QXC       0.176900
     11 C07        -46.2290   -28.4100     5.9470 ca         1 QXC       0.148500
     12 C09        -48.4580   -28.3870     5.7480 cd         1 QXC      -0.184100
     13 N02        -45.6670   -30.3380     2.9120 nu         1 QXC      -0.922100
     14 N04        -44.2270   -29.4480     4.4950 nb         1 QXC      -0.309000
     15 N06        -44.9810   -28.2070     6.4060 nb         1 QXC      -0.236000
     16 N08        -47.3880   -27.9770     6.5200 na         1 QXC      -0.324400
     17 N17        -46.4870   -31.6970     0.7860 nb         1 QXC      -0.695000
     18 H161       -48.0760   -32.3710    -0.3430 h4         1 QXC       0.021100
     19 H151       -46.6640   -33.4800    -2.0610 ha         1 QXC       0.127000
     20 H141       -44.1710   -33.3730    -1.8070 ha         1 QXC       0.122000
     21 H131       -43.2220   -32.1620     0.1540 ha         1 QXC       0.128000
     22 H012       -43.9140   -30.1300     1.7790 h1         1 QXC       0.066200
     23 H011       -44.0050   -31.6030     2.7200 h1         1 QXC       0.066200
     24 H051       -43.0240   -28.6230     5.9450 h5         1 QXC       0.042100
     25 H091       -49.4660   -28.1400     6.0380 h4         1 QXC       0.216000
     26 H021       -46.6020   -30.5040     2.5670 hn         1 QXC       0.529000
     27 H081       -47.4490   -27.4410     7.3710 hn         1 QXC       0.360000
     28 H101       -48.6030   -29.5300     3.8930 ha         1 QXC       0.204000
@<TRIPOS>BOND
     1     1     2 ar  
     2     1    17 ar  
     3     1    18 1   
     4     2     3 ar  
     5     2    19 1   
     6     3     4 ar  
     7     3    20 1   
     8     4     5 ar  
     9     4    21 1   
    10     5     8 1   
    11     5    17 ar  
    12     6     7 1   
    13     6     9 ar  
    14     6    11 ar  
    15     7    12 2   
    16     7    28 1   
    17     8    13 1   
    18     8    22 1   
    19     8    23 1   
    20     9    13 1   
    21     9    14 ar  
    22    10    14 ar  
    23    10    15 ar  
    24    10    24 1   
    25    11    15 ar  
    26    11    16 1   
    27    12    16 1   
    28    12    25 1   
    29    13    26 1   
    30    16    27 1   
@<TRIPOS>SUBSTRUCTURE
     1 QXC         1 TEMP              0 ****  ****    0 ROOT
