@<TRIPOS>MOLECULE
QXE
   16    16     1     0     0
SMALL
No Charge or Current Charge


@<TRIPOS>ATOM
      1 C1          21.5050    31.4640    -8.6050 c5         1 QXE      -0.103400
      2 C2          22.0600    32.7560    -9.2830 c5         1 QXE       0.180300
      3 C3          20.8760    33.7520    -9.2230 c5         1 QXE      -0.283400
      4 O2          22.4620    32.5330   -10.6290 oh         1 QXE      -0.649000
      5 C           20.1990    31.1430    -9.3950 c5         1 QXE      -0.275400
      6 S           19.3430    32.7750    -9.5760 s6         1 QXE       1.048000
      7 H1          21.2950    31.6410    -7.5430 hc         1 QXE       0.065200
      8 H2          22.2220    30.6360    -8.6460 hc         1 QXE       0.065200
      9 H3          22.9120    33.1520    -8.7100 h1         1 QXE       0.060700
     10 H4          20.9390    34.5560    -9.9630 h1         1 QXE       0.117700
     11 H5          20.7400    34.1770    -8.2230 h1         1 QXE       0.117700
     12 H6          23.2320    31.9220   -10.5980 ho         1 QXE       0.454000
     13 H7          19.5180    30.4570    -8.8790 h1         1 QXE       0.110200
     14 H8          20.3920    30.7830   -10.4120 h1         1 QXE       0.110200
     15 O1          18.3790    32.9600    -8.4840 o          1 QXE      -0.508500
     16 O           18.9190    32.9690   -10.9690 o          1 QXE      -0.508500
@<TRIPOS>BOND
     1     1     2 1   
     2     1     5 1   
     3     1     7 1   
     4     1     8 1   
     5     2     3 1   
     6     2     4 1   
     7     2     9 1   
     8     3     6 1   
     9     3    10 1   
    10     3    11 1   
    11     4    12 1   
    12     5     6 1   
    13     5    13 1   
    14     5    14 1   
    15     6    15 2   
    16     6    16 2   
@<TRIPOS>SUBSTRUCTURE
     1 QXE         1 TEMP              0 ****  ****    0 ROOT
