@<TRIPOS>MOLECULE
QXE
   16    16     1     0     0
SMALL
abcg2


@<TRIPOS>ATOM
      1 C1          21.5270    31.4610    -8.6480 c5         1 QXE      -0.103400
      2 C2          22.0390    32.7710    -9.2610 c5         1 QXE       0.180300
      3 C3          20.8750    33.7400    -9.1670 c5         1 QXE      -0.283400
      4 O2          22.3500    32.6230   -10.6240 oh         1 QXE      -0.649000
      5 C           20.1850    31.1440    -9.3010 c5         1 QXE      -0.275400
      6 S           19.4330    32.7600    -9.6580 s6         1 QXE       1.048000
      7 H1          21.4050    31.5940    -7.5720 hc         1 QXE       0.065200
      8 H2          22.2360    30.6460    -8.7980 hc         1 QXE       0.065200
      9 H3          22.8890    33.1550    -8.6850 h1         1 QXE       0.060700
     10 H4          20.9550    34.6090    -9.8190 h1         1 QXE       0.117700
     11 H5          20.7270    34.0650    -8.1370 h1         1 QXE       0.117700
     12 H6          23.0620    31.9800   -10.7090 ho         1 QXE       0.454000
     13 H7          19.5070    30.5860    -8.6590 h1         1 QXE       0.110200
     14 H8          20.2950    30.6230   -10.2500 h1         1 QXE       0.110200
     15 O1          18.3090    33.0190    -8.7590 o          1 QXE      -0.508500
     16 O           19.1970    32.9010   -11.0930 o          1 QXE      -0.508500
@<TRIPOS>BOND
     1     1     2 1   
     2     1     5 1   
     3     1     7 1   
     4     1     8 1   
     5     2     3 1   
     6     2     4 1   
     7     2     9 1   
     8     3     6 1   
     9     3    10 1   
    10     3    11 1   
    11     4    12 1   
    12     5     6 1   
    13     5    13 1   
    14     5    14 1   
    15     6    15 2   
    16     6    16 2   
@<TRIPOS>SUBSTRUCTURE
     1 QXE         1 TEMP              0 ****  ****    0 ROOT
