@<TRIPOS>MOLECULE
QXF
   38    39     1     0     0
SMALL
No Charge or Current Charge


@<TRIPOS>ATOM
      1 Cl1          8.4510    -0.5270    28.3270 cl         1 QXF      -0.194000
      2 C1           7.2450     0.4250    29.1840 ca         1 QXF       0.131000
      3 C2           7.6520     1.4010    30.1080 ca         1 QXF      -0.092000
      4 C3           6.6880     2.1650    30.7850 ca         1 QXF      -0.093000
      5 C4           5.3210     1.9480    30.5360 ca         1 QXF      -0.121000
      6 C5           4.9090     0.9670    29.6140 ca         1 QXF       0.251000
      7 C6           5.8800     0.2090    28.9370 ca         1 QXF      -0.065000
      8 N1           3.5400     0.7700    29.3580 nh         1 QXF      -0.791300
      9 C7           2.6570     1.9020    28.9540 c3         1 QXF       0.164500
     10 C8           3.3430     3.0960    28.2700 ca         1 QXF       0.352300
     11 C9           4.0840     2.9100    27.0900 ca         1 QXF      -0.136000
     12 C10          4.7180     4.0100    26.4940 ca         1 QXF      -0.024000
     13 C11          4.5870     5.2770    27.1000 ca         1 QXF      -0.203600
     14 C12          3.8220     5.3720    28.2780 ca         1 QXF       0.358900
     15 N2           3.2110     4.3120    28.8550 nb         1 QXF      -0.680000
     16 C13          5.2520     6.4840    26.4940 c          1 QXF       0.636700
     17 O1           5.9170     6.4010    25.4680 o          1 QXF      -0.556100
     18 N3           5.0770     7.7080    27.1520 ns         1 QXF      -0.412300
     19 N4           5.6430     8.9860    26.7170 n8         1 QXF      -0.716200
     20 S1           2.7770    -0.6660    29.9480 s6         1 QXF       1.244100
     21 C14          3.0080    -0.5740    31.7120 c3         1 QXF      -0.382100
     22 O2           3.5450    -1.8030    29.4320 o          1 QXF      -0.532500
     23 O3           1.3440    -0.5500    29.6580 o          1 QXF      -0.532500
     24 H1           8.7110     1.5640    30.2950 ha         1 QXF       0.135000
     25 H2           6.9980     2.9250    31.5010 ha         1 QXF       0.124000
     26 H3           4.5790     2.5410    31.0620 ha         1 QXF       0.119000
     27 H4           5.5770    -0.5380    28.2110 ha         1 QXF       0.148000
     28 H5           2.1160     2.2720    29.8350 h1         1 QXF       0.075200
     29 H6           1.8980     1.5390    28.2480 h1         1 QXF       0.075200
     30 H7           4.1700     1.9190    26.6530 ha         1 QXF       0.141000
     31 H8           5.2980     3.8760    25.5820 ha         1 QXF       0.144000
     32 H9           3.6820     6.3200    28.7930 h4         1 QXF       0.019100
     33 H10          4.5090     7.6900    27.9990 hn         1 QXF       0.302500
     34 H11          4.9060     9.6850    26.5340 hn         1 QXF       0.400000
     35 H12          6.2600     9.3930    27.4360 hn         1 QXF       0.400000
     36 H13          4.0850    -0.5770    31.9050 h1         1 QXF       0.103367
     37 H14          2.5430     0.3560    32.0530 h1         1 QXF       0.103367
     38 H15          2.5210    -1.4500    32.1520 h1         1 QXF       0.103367
@<TRIPOS>BOND
     1     1     2 1   
     2     2     3 ar  
     3     2     7 ar  
     4     3     4 ar  
     5     3    24 1   
     6     4     5 ar  
     7     4    25 1   
     8     5     6 ar  
     9     5    26 1   
    10     6     7 ar  
    11     6     8 1   
    12     7    27 1   
    13     8     9 1   
    14     8    20 1   
    15     9    10 1   
    16     9    28 1   
    17     9    29 1   
    18    10    11 ar  
    19    10    15 ar  
    20    11    12 ar  
    21    11    30 1   
    22    12    13 ar  
    23    12    31 1   
    24    13    14 ar  
    25    13    16 1   
    26    14    15 ar  
    27    14    32 1   
    28    16    17 2   
    29    16    18 1   
    30    18    19 1   
    31    18    33 1   
    32    19    34 1   
    33    19    35 1   
    34    20    21 1   
    35    20    22 2   
    36    20    23 2   
    37    21    36 1   
    38    21    37 1   
    39    21    38 1   
@<TRIPOS>SUBSTRUCTURE
     1 QXF         1 TEMP              0 ****  ****    0 ROOT
