@<TRIPOS>MOLECULE
QXF
   38    39     1     0     0
SMALL
abcg2


@<TRIPOS>ATOM
      1 CL1          8.5600    -0.2930    28.0660 cl         1 QXF      -0.194000
      2 C1           7.4280     0.3170    29.2540 ca         1 QXF       0.131000
      3 C2           7.8900     0.6830    30.5110 ca         1 QXF      -0.092000
      4 C3           6.9790     1.1710    31.4400 ca         1 QXF      -0.093000
      5 C4           5.6310     1.2830    31.1220 ca         1 QXF      -0.121000
      6 C5           5.1900     0.9120    29.8540 ca         1 QXF       0.251000
      7 C6           6.0910     0.4320    28.9080 ca         1 QXF      -0.065000
      8 N1           3.8110     1.0520    29.4830 nh         1 QXF      -0.791300
      9 C7           3.1760     2.3560    29.7020 c3         1 QXF       0.164500
     10 C8           3.7330     3.4180    28.7860 ca         1 QXF       0.352300
     11 C9           4.2260     3.1160    27.5180 ca         1 QXF      -0.136000
     12 C10          4.6980     4.1460    26.7250 ca         1 QXF      -0.024000
     13 C11          4.6430     5.4540    27.2020 ca         1 QXF      -0.203600
     14 C12          4.1310     5.6550    28.4820 ca         1 QXF       0.358900
     15 N2           3.6980     4.6650    29.2630 nb         1 QXF      -0.680000
     16 C13          5.1820     6.5660    26.3550 c          1 QXF       0.636700
     17 O1           6.1670     6.3950    25.6420 o          1 QXF      -0.556100
     18 N3           4.4940     7.7250    26.4500 ns         1 QXF      -0.412300
     19 N4           4.8850     8.8730    25.7470 n8         1 QXF      -0.716200
     20 S1           2.8480    -0.2940    29.4600 s6         1 QXF       1.244100
     21 C14          2.3660    -0.5890    31.1420 c3         1 QXF      -0.382100
     22 O2           3.6700    -1.3960    29.0240 o          1 QXF      -0.532500
     23 O3           1.6670     0.0460    28.7020 o          1 QXF      -0.532500
     24 H1           8.9390     0.5900    30.7550 ha         1 QXF       0.135000
     25 H2           7.3250     1.4570    32.4250 ha         1 QXF       0.124000
     26 H3           4.9280     1.6530    31.8550 ha         1 QXF       0.119000
     27 H4           5.7460     0.1570    27.9230 ha         1 QXF       0.148000
     28 H5           3.2860     2.6870    30.7350 h1         1 QXF       0.075200
     29 H6           2.1090     2.2470    29.5060 h1         1 QXF       0.075200
     30 H7           4.2380     2.0940    27.1700 ha         1 QXF       0.141000
     31 H8           5.1020     3.9490    25.7410 ha         1 QXF       0.144000
     32 H9           4.0980     6.6490    28.9140 h4         1 QXF       0.019100
     33 H10          3.6360     7.7520    26.9830 hn         1 QXF       0.302500
     34 H11          4.1490     9.1270    25.0950 hn         1 QXF       0.400000
     35 H12          4.9930     9.6360    26.4080 hn         1 QXF       0.400000
     36 H13          3.2650    -0.7590    31.7310 h1         1 QXF       0.103367
     37 H14          1.8180     0.2790    31.5040 h1         1 QXF       0.103367
     38 H15          1.7310    -1.4740    31.1460 h1         1 QXF       0.103367
@<TRIPOS>BOND
     1     1     2 1   
     2     2     3 ar  
     3     2     7 ar  
     4     3     4 ar  
     5     3    24 1   
     6     4     5 ar  
     7     4    25 1   
     8     5     6 ar  
     9     5    26 1   
    10     6     7 ar  
    11     6     8 1   
    12     7    27 1   
    13     8     9 1   
    14     8    20 1   
    15     9    10 1   
    16     9    28 1   
    17     9    29 1   
    18    10    11 ar  
    19    10    15 ar  
    20    11    12 ar  
    21    11    30 1   
    22    12    13 ar  
    23    12    31 1   
    24    13    14 ar  
    25    13    16 1   
    26    14    15 ar  
    27    14    32 1   
    28    16    17 2   
    29    16    18 1   
    30    18    19 1   
    31    18    33 1   
    32    19    34 1   
    33    19    35 1   
    34    20    21 1   
    35    20    22 2   
    36    20    23 2   
    37    21    36 1   
    38    21    37 1   
    39    21    38 1   
@<TRIPOS>SUBSTRUCTURE
     1 QXF         1 TEMP              0 ****  ****    0 ROOT
