@<TRIPOS>MOLECULE
QXG
   53    56     1     0     0
SMALL
abcg2


@<TRIPOS>ATOM
      1 N10         19.7010    -9.9640    11.8660 na         1 QXG      -0.313300
      2 C02         22.4100   -10.7190     9.7830 ca         1 QXG       0.452900
      3 C04         20.6790   -12.1560     9.2970 ca         1 QXG       0.183900
      4 C06         20.3080   -10.6840    10.8800 ca         1 QXG       0.121500
      5 C07         21.5750   -10.1360    10.7550 ca         1 QXG      -0.101600
      6 C09         20.6140    -9.0280    12.2730 cc         1 QXG       0.414700
      7 C11         18.3340   -10.1790    12.3240 c5         1 QXG       0.325300
      8 C13         17.7560    -9.4940    14.4760 c5         1 QXG       0.162300
      9 C14         18.3230    -8.4360    15.3950 c3         1 QXG       0.200800
     10 C20         20.3590    -5.4730    15.1810 c          1 QXG       0.662700
     11 C22         21.7900    -5.2720    15.4560 ca         1 QXG      -0.246600
     12 C23         22.2040    -4.7460    16.6930 ca         1 QXG      -0.058000
     13 C24         23.5370    -4.5680    16.9720 ca         1 QXG      -0.142000
     14 C25         24.4910    -4.9320    16.0180 ca         1 QXG      -0.129000
     15 C26         24.1090    -5.4460    14.8010 ca         1 QXG       0.044100
     16 C28         22.7390    -5.6070    14.4700 ca         1 QXG       0.373000
     17 C30         18.4650   -10.8400    14.5880 c5         1 QXG       0.089300
     18 C32         18.2180   -11.4290    13.1940 c5         1 QXG       0.104300
     19 N01         23.6530   -10.2960     9.5540 nv         1 QXG      -1.064900
     20 N03         21.9210   -11.7370     9.0660 nb         1 QXG      -0.302000
     21 N05         19.8060   -11.6970    10.1760 nb         1 QXG      -0.221000
     22 N08         21.7450    -9.1010    11.6350 nd         1 QXG      -0.556100
     23 N15         17.6600    -7.1640    15.1370 n7         1 QXG      -0.877300
     24 N19         19.5620    -5.6860    16.2830 ns         1 QXG      -0.604300
     25 N29         22.4250    -6.1440    13.2610 nv         1 QXG      -1.081000
     26 O12         17.9420    -9.0990    13.1180 os         1 QXG      -0.448000
     27 O17         17.3050    -4.7540    15.5590 o          1 QXG      -0.532500
     28 O18         17.5300    -6.3420    17.4970 o          1 QXG      -0.532500
     29 O21         19.8650    -5.4850    14.0650 o          1 QXG      -0.614100
     30 O27         24.9830    -5.8190    13.8410 oh         1 QXG      -0.548100
     31 O31         17.9180   -11.5880    15.6330 oh         1 QXG      -0.703000
     32 O33         16.9070   -11.9050    13.0740 oh         1 QXG      -0.699000
     33 S16         17.9000    -5.9200    16.1650 s6         1 QXG       1.293900
     34 H1          20.3450   -12.9840     8.6800 h5         1 QXG       0.048100
     35 H2          20.3920    -8.2980    13.0360 h5         1 QXG       0.074800
     36 H3          17.7010   -10.2490    11.4360 h2         1 QXG       0.127700
     37 H4          16.6860    -9.6120    14.6770 h1         1 QXG       0.102700
     38 H5          18.1280    -8.7430    16.4230 h1         1 QXG       0.058700
     39 H6          19.4100    -8.3670    15.2680 h1         1 QXG       0.058700
     40 H7          21.4690    -4.4440    17.4270 ha         1 QXG       0.117000
     41 H8          23.8510    -4.1480    17.9160 ha         1 QXG       0.122000
     42 H9          25.5460    -4.8050    16.2360 ha         1 QXG       0.115000
     43 H10         19.5430   -10.6790    14.7240 h1         1 QXG       0.055700
     44 H11         18.9590   -12.1910    12.9240 h1         1 QXG       0.079700
     45 H12         24.2220   -10.7430     8.8560 hn         1 QXG       0.507000
     46 H13         24.0530    -9.5440    10.0860 hn         1 QXG       0.507000
     47 H14         17.7210    -6.8560    14.1710 hn         1 QXG       0.514000
     48 H15         19.9670    -5.8850    17.1890 hn         1 QXG       0.349500
     49 H16         21.5120    -5.9610    12.8840 hn         1 QXG       0.496500
     50 H17         23.1570    -6.2330    12.5790 hn         1 QXG       0.496500
     51 H18         25.8900    -5.6570    14.1250 ho         1 QXG       0.471000
     52 H19         18.5410   -12.2790    15.8810 ho         1 QXG       0.519000
     53 H20         16.6920   -12.3890    13.8800 ho         1 QXG       0.526000
@<TRIPOS>BOND
     1     1     4 1   
     2     1     6 1   
     3     1     7 1   
     4     2     5 ar  
     5     2    19 1   
     6     2    20 ar  
     7     3    20 ar  
     8     3    21 ar  
     9     3    34 1   
    10     4     5 ar  
    11     4    21 ar  
    12     5    22 1   
    13     6    22 2   
    14     6    35 1   
    15     7    18 1   
    16     7    26 1   
    17     7    36 1   
    18     8     9 1   
    19     8    17 1   
    20     8    26 1   
    21     8    37 1   
    22     9    23 1   
    23     9    38 1   
    24     9    39 1   
    25    10    11 1   
    26    10    24 1   
    27    10    29 2   
    28    11    12 ar  
    29    11    16 ar  
    30    12    13 ar  
    31    12    40 1   
    32    13    14 ar  
    33    13    41 1   
    34    14    15 ar  
    35    14    42 1   
    36    15    16 ar  
    37    15    30 1   
    38    16    25 1   
    39    17    18 1   
    40    17    31 1   
    41    17    43 1   
    42    18    32 1   
    43    18    44 1   
    44    19    45 1   
    45    19    46 1   
    46    23    33 1   
    47    23    47 1   
    48    24    33 1   
    49    24    48 1   
    50    25    49 1   
    51    25    50 1   
    52    27    33 2   
    53    28    33 2   
    54    30    51 1   
    55    31    52 1   
    56    32    53 1   
@<TRIPOS>SUBSTRUCTURE
     1 QXG         1 TEMP              0 ****  ****    0 ROOT
