@<TRIPOS>MOLECULE
QXG
   53    56     1     0     0
SMALL
No Charge or Current Charge


@<TRIPOS>ATOM
      1 N10         20.1140   -10.6450    12.4620 na         1 QXG      -0.313300
      2 C02         22.9990    -9.7880    10.6540 ca         1 QXG       0.452900
      3 C04         21.2620    -8.7150     9.6210 ca         1 QXG       0.183900
      4 C06         20.7590    -9.9960    11.4480 ca         1 QXG       0.121500
      5 C07         22.0840   -10.3260    11.5820 ca         1 QXG      -0.101600
      6 C09         21.0820   -11.3490    13.1890 cc         1 QXG       0.414700
      7 C11         18.6740   -10.6140    12.7310 c5         1 QXG       0.325300
      8 C13         17.5860    -9.7470    14.6340 c5         1 QXG       0.162300
      9 C14         17.7930    -8.6930    15.7490 c3         1 QXG       0.200800
     10 C20         20.1660    -5.8770    14.6680 c          1 QXG       0.662700
     11 C22         21.6420    -5.5320    14.6430 ca         1 QXG      -0.246600
     12 C23         22.2500    -4.9080    15.7650 ca         1 QXG      -0.058000
     13 C24         23.6110    -4.5660    15.7540 ca         1 QXG      -0.142000
     14 C25         24.4010    -4.8290    14.6290 ca         1 QXG      -0.129000
     15 C26         23.8300    -5.4430    13.5040 ca         1 QXG       0.044100
     16 C28         22.4500    -5.8010    13.5100 ca         1 QXG       0.373000
     17 C30         18.0350   -11.1970    14.9870 c5         1 QXG       0.089300
     18 C32         18.0620   -11.8100    13.5580 c5         1 QXG       0.104300
     19 N01         24.3320   -10.0570    10.6990 nv         1 QXG      -1.064900
     20 N03         22.5920    -8.9740     9.6670 nb         1 QXG      -0.302000
     21 N05         20.3140    -9.1880    10.4660 nb         1 QXG      -0.221000
     22 N08         22.3120   -11.1770    12.6680 nd         1 QXG      -0.556100
     23 N15         17.4610    -7.3340    15.2770 n7         1 QXG      -0.877300
     24 N19         19.5590    -5.8380    15.8770 ns         1 QXG      -0.604300
     25 N29         21.9310    -6.4160    12.4020 nv         1 QXG      -1.081000
     26 O12         18.3980    -9.4080    13.4860 os         1 QXG      -0.448000
     27 O17         17.2180    -4.8950    15.6700 o          1 QXG      -0.532500
     28 O18         17.8180    -6.4350    17.5910 o          1 QXG      -0.532500
     29 O21         19.5180    -6.1690    13.6730 o          1 QXG      -0.614100
     30 O27         24.6270    -5.6850    12.4050 oh         1 QXG      -0.548100
     31 O31         17.1070   -11.9070    15.8290 oh         1 QXG      -0.703000
     32 O33         16.7200   -12.1480    13.1750 oh         1 QXG      -0.699000
     33 S16         17.9510    -6.0480    16.1880 s6         1 QXG       1.293900
     34 H1          20.9200    -8.0580     8.8230 h5         1 QXG       0.048100
     35 H2          20.8420   -11.9510    14.0580 h5         1 QXG       0.074800
     36 H3          18.1870   -10.5630    11.7480 h2         1 QXG       0.127700
     37 H4          16.5290    -9.7270    14.3330 h1         1 QXG       0.102700
     38 H5          17.1690    -8.9640    16.6120 h1         1 QXG       0.058700
     39 H6          18.8430    -8.7470    16.0710 h1         1 QXG       0.058700
     40 H7          21.6770    -4.6600    16.6550 ha         1 QXG       0.117000
     41 H8          24.0530    -4.0850    16.6250 ha         1 QXG       0.122000
     42 H9          25.4530    -4.5520    14.6360 ha         1 QXG       0.115000
     43 H10         19.0420   -11.1950    15.4280 h1         1 QXG       0.055700
     44 H11         18.7020   -12.7020    13.5140 h1         1 QXG       0.079700
     45 H12         24.9580    -9.4170    10.2180 hn         1 QXG       0.507000
     46 H13         24.6840   -10.4800    11.5540 hn         1 QXG       0.507000
     47 H14         18.0540    -7.1480    14.4590 hn         1 QXG       0.514000
     48 H15         20.0850    -5.6460    16.7090 hn         1 QXG       0.349500
     49 H16         20.9160    -6.5020    12.3370 hn         1 QXG       0.496500
     50 H17         22.4810    -6.4230    11.5480 hn         1 QXG       0.496500
     51 H18         25.5380    -5.3720    12.5980 ho         1 QXG       0.471000
     52 H19         17.4460   -11.8690    16.7560 ho         1 QXG       0.519000
     53 H20         16.2810   -12.3350    14.0440 ho         1 QXG       0.526000
@<TRIPOS>BOND
     1     1     4 1   
     2     1     6 1   
     3     1     7 1   
     4     2     5 ar  
     5     2    19 1   
     6     2    20 ar  
     7     3    20 ar  
     8     3    21 ar  
     9     3    34 1   
    10     4     5 ar  
    11     4    21 ar  
    12     5    22 1   
    13     6    22 2   
    14     6    35 1   
    15     7    18 1   
    16     7    26 1   
    17     7    36 1   
    18     8     9 1   
    19     8    17 1   
    20     8    26 1   
    21     8    37 1   
    22     9    23 1   
    23     9    38 1   
    24     9    39 1   
    25    10    11 1   
    26    10    24 1   
    27    10    29 2   
    28    11    12 ar  
    29    11    16 ar  
    30    12    13 ar  
    31    12    40 1   
    32    13    14 ar  
    33    13    41 1   
    34    14    15 ar  
    35    14    42 1   
    36    15    16 ar  
    37    15    30 1   
    38    16    25 1   
    39    17    18 1   
    40    17    31 1   
    41    17    43 1   
    42    18    32 1   
    43    18    44 1   
    44    19    45 1   
    45    19    46 1   
    46    23    33 1   
    47    23    47 1   
    48    24    33 1   
    49    24    48 1   
    50    25    49 1   
    51    25    50 1   
    52    27    33 2   
    53    28    33 2   
    54    30    51 1   
    55    31    52 1   
    56    32    53 1   
@<TRIPOS>SUBSTRUCTURE
     1 QXG         1 TEMP              0 ****  ****    0 ROOT
