@<TRIPOS>MOLECULE
QXH
   93    97     1     0     0
SMALL
bcc


@<TRIPOS>ATOM
      1 C10        -29.3590    17.1010    -4.5850 ca         1 QXH      -0.063300
      2 C13        -30.7890    14.7670    -4.9920 ca         1 QXH      -0.152000
      3 C14        -28.6260    18.3980    -4.3600 c3         1 QXH       0.215100
      4 N16        -27.5310    18.5860    -5.2910 n3         1 QXH      -0.719600
      5 C17        -27.0420    19.9510    -5.2590 c6         1 QXH       0.165300
      6 C18        -25.9170    20.1440    -6.2580 c6         1 QXH       0.165550
      7 N19        -24.8340    19.2280    -5.9650 n3         1 QXH      -0.727600
      8 C20        -25.3130    17.8610    -6.0260 c6         1 QXH       0.165550
      9 C21        -26.4470    17.6550    -5.0400 c6         1 QXH       0.165300
     10 C22        -23.6680    19.4490    -6.7880 c3         1 QXH       0.215100
     11 C1         -32.1270    15.3580    -9.5400 c3         1 QXH      -0.253000
     12 C2         -33.5640    15.8870    -9.3600 c3         1 QXH      -0.060900
     13 C3         -34.6350    15.3080   -10.2750 c3         1 QXH      -0.091600
     14 C4         -32.0210    13.8120    -9.5280 c3         1 QXH      -0.060900
     15 C5         -32.2310    13.1200   -10.8740 c3         1 QXH      -0.091600
     16 C6         -31.2810    15.9890    -8.4260 c          1 QXH       0.675100
     17 C7         -31.4650    15.8700   -10.8090 c          1 QXH       0.605900
     18 O8         -31.9800    16.5940   -11.6190 o          1 QXH      -0.499100
     19 N9         -31.3580    15.3890    -7.2180 ns         1 QXH      -0.465100
     20 O10        -30.6170    16.9860    -8.6580 o          1 QXH      -0.577100
     21 C8         -30.6880    15.7040    -6.0270 ca         1 QXH       0.060600
     22 C9         -29.9650    16.8730    -5.8190 ca         1 QXH      -0.152000
     23 C11        -29.4520    16.1570    -3.5760 ca         1 QXH      -0.129000
     24 C12        -30.1700    14.9790    -3.7740 ca         1 QXH      -0.063300
     25 C23        -22.4320    18.7960    -6.2250 ca         1 QXH      -0.072300
     26 C24        -22.1950    18.7820    -4.8520 ca         1 QXH      -0.118250
     27 C25        -21.0400    18.2260    -4.3270 ca         1 QXH      -0.106000
     28 C26        -20.1020    17.6760    -5.1910 ca         1 QXH      -0.018400
     29 C27        -20.3120    17.6710    -6.5600 ca         1 QXH      -0.106000
     30 C28        -21.4790    18.2300    -7.0640 ca         1 QXH      -0.118250
     31 BR1        -18.5240    16.9120    -4.4840 br         1 QXH      -0.104100
     32 C33        -30.2250    13.9230    -2.6990 c3         1 QXH       0.215100
     33 N34        -30.2900    14.4830    -1.3680 n3         1 QXH      -0.719600
     34 C35        -31.5670    15.1140    -1.0960 c6         1 QXH       0.165300
     35 C36        -31.5560    15.7700     0.2700 c6         1 QXH       0.165550
     36 N37        -31.2430    14.8000     1.3030 n3         1 QXH      -0.727600
     37 C38        -29.9700    14.1620     1.0250 c6         1 QXH       0.165550
     38 C39        -29.9850    13.5070    -0.3420 c6         1 QXH       0.165300
     39 C40        -31.2770    15.3960     2.6200 c3         1 QXH       0.215100
     40 C41        -31.2710    14.3730     3.7260 ca         1 QXH      -0.072300
     41 C42        -32.0380    13.2140     3.6310 ca         1 QXH      -0.118250
     42 C43        -32.0710    12.2900     4.6650 ca         1 QXH      -0.106000
     43 C44        -31.3280    12.5320     5.8120 ca         1 QXH      -0.018400
     44 C45        -30.5560    13.6760     5.9330 ca         1 QXH      -0.106000
     45 C46        -30.5320    14.5850     4.8830 ca         1 QXH      -0.118250
     46 BR2        -31.3630    11.2790     7.2280 br         1 QXH      -0.104100
     47 H1         -31.3600    13.8570    -5.1500 ha         1 QXH       0.149500
     48 H2         -28.2850    18.4480    -3.3120 h1         1 QXH       0.039450
     49 H3         -29.3260    19.2270    -4.4970 h1         1 QXH       0.039450
     50 H5         -26.6760    20.2310    -4.2560 h1         1 QXH       0.039825
     51 H6         -27.8620    20.6300    -5.5070 h1         1 QXH       0.039825
     52 H7         -25.5500    21.1700    -6.1880 h1         1 QXH       0.041075
     53 H8         -26.3090    20.0060    -7.2800 h1         1 QXH       0.041075
     54 H10        -25.6560    17.6030    -7.0420 h1         1 QXH       0.041075
     55 H11        -24.5010    17.1760    -5.7740 h1         1 QXH       0.041075
     56 H12        -26.8190    16.6320    -5.1370 h1         1 QXH       0.039825
     57 H13        -26.0560    17.7620    -4.0130 h1         1 QXH       0.039825
     58 H14        -23.8140    19.1170    -7.8300 h1         1 QXH       0.041200
     59 H15        -23.4930    20.5290    -6.8380 h1         1 QXH       0.041200
     60 H16        -33.5500    16.9740    -9.4650 hc         1 QXH       0.046950
     61 H17        -33.8650    15.6920    -8.3280 hc         1 QXH       0.046950
     62 H18        -35.5830    15.8060   -10.0750 hc         1 QXH       0.040200
     63 H19        -34.4070    15.4500   -11.3300 hc         1 QXH       0.040200
     64 H20        -34.7900    14.2440   -10.0980 hc         1 QXH       0.040200
     65 H21        -32.7460    13.4180    -8.8100 hc         1 QXH       0.046950
     66 H22        -31.0350    13.5210    -9.1570 hc         1 QXH       0.046950
     67 H23        -32.2200    12.0400   -10.7300 hc         1 QXH       0.040200
     68 H24        -33.1780    13.3790   -11.3420 hc         1 QXH       0.040200
     69 H25        -31.4350    13.3510   -11.5830 hc         1 QXH       0.040200
     70 H26        -30.4340    15.4980   -10.9580 h4         1 QXH      -0.002800
     71 H27        -31.9360    14.5630    -7.1630 hn         1 QXH       0.318500
     72 H28        -29.8720    17.6190    -6.5920 ha         1 QXH       0.149500
     73 H29        -28.9740    16.3360    -2.6200 ha         1 QXH       0.149000
     74 H30        -22.9320    19.2030    -4.1800 ha         1 QXH       0.141250
     75 H31        -20.8790    18.2260    -3.2570 ha         1 QXH       0.146500
     76 H32        -19.5870    17.2360    -7.2350 ha         1 QXH       0.146500
     77 H33        -21.6450    18.2180    -8.1350 ha         1 QXH       0.141250
     78 H34        -31.0600    13.2310    -2.9020 h1         1 QXH       0.039450
     79 H35        -29.3130    13.3190    -2.7630 h1         1 QXH       0.039450
     80 H37        -31.7630    15.8770    -1.8520 h1         1 QXH       0.039825
     81 H38        -32.3940    14.3860    -1.1470 h1         1 QXH       0.039825
     82 H39        -30.8360    16.6070     0.2630 h1         1 QXH       0.041075
     83 H40        -32.5420    16.1960     0.4700 h1         1 QXH       0.041075
     84 H42        -29.7730    13.3990     1.7800 h1         1 QXH       0.041075
     85 H43        -29.1380    14.8870     1.0700 h1         1 QXH       0.041075
     86 H44        -30.7090    12.6740    -0.3380 h1         1 QXH       0.039825
     87 H45        -29.0010    13.0760    -0.5410 h1         1 QXH       0.039825
     88 H46        -30.4490    16.1060     2.7780 h1         1 QXH       0.041200
     89 H47        -32.1980    15.9840     2.6970 h1         1 QXH       0.041200
     90 H48        -32.6110    13.0230     2.7330 ha         1 QXH       0.141250
     91 H49        -32.6720    11.3950     4.5690 ha         1 QXH       0.146500
     92 H50        -29.9700    13.8640     6.8230 ha         1 QXH       0.146500
     93 H51        -29.9200    15.4740     4.9750 ha         1 QXH       0.141250
@<TRIPOS>BOND
     1     1     3 1   
     2     1    22 ar  
     3     1    23 ar  
     4     2    21 ar  
     5     2    24 ar  
     6     2    47 1   
     7     3     4 1   
     8     3    48 1   
     9     3    49 1   
    10     4     5 1   
    11     4     9 1   
    12     5     6 1   
    13     5    50 1   
    14     5    51 1   
    15     6     7 1   
    16     6    52 1   
    17     6    53 1   
    18     7     8 1   
    19     7    10 1   
    20     8     9 1   
    21     8    54 1   
    22     8    55 1   
    23     9    56 1   
    24     9    57 1   
    25    10    25 1   
    26    10    58 1   
    27    10    59 1   
    28    11    12 1   
    29    11    14 1   
    30    11    16 1   
    31    11    17 1   
    32    12    13 1   
    33    12    60 1   
    34    12    61 1   
    35    13    62 1   
    36    13    63 1   
    37    13    64 1   
    38    14    15 1   
    39    14    65 1   
    40    14    66 1   
    41    15    67 1   
    42    15    68 1   
    43    15    69 1   
    44    16    19 1   
    45    16    20 2   
    46    17    18 2   
    47    17    70 1   
    48    19    21 1   
    49    19    71 1   
    50    21    22 ar  
    51    22    72 1   
    52    23    24 ar  
    53    23    73 1   
    54    24    32 1   
    55    25    26 ar  
    56    25    30 ar  
    57    26    27 ar  
    58    26    74 1   
    59    27    28 ar  
    60    27    75 1   
    61    28    29 ar  
    62    28    31 1   
    63    29    30 ar  
    64    29    76 1   
    65    30    77 1   
    66    32    33 1   
    67    32    78 1   
    68    32    79 1   
    69    33    34 1   
    70    33    38 1   
    71    34    35 1   
    72    34    80 1   
    73    34    81 1   
    74    35    36 1   
    75    35    82 1   
    76    35    83 1   
    77    36    37 1   
    78    36    39 1   
    79    37    38 1   
    80    37    84 1   
    81    37    85 1   
    82    38    86 1   
    83    38    87 1   
    84    39    40 1   
    85    39    88 1   
    86    39    89 1   
    87    40    41 ar  
    88    40    45 ar  
    89    41    42 ar  
    90    41    90 1   
    91    42    43 ar  
    92    42    91 1   
    93    43    44 ar  
    94    43    46 1   
    95    44    45 ar  
    96    44    92 1   
    97    45    93 1   
@<TRIPOS>SUBSTRUCTURE
     1 QXH         1 TEMP              0 ****  ****    0 ROOT
