@<TRIPOS>MOLECULE
QXH
   93    97     1     0     0
SMALL
No Charge or Current Charge


@<TRIPOS>ATOM
      1 C10        -28.9600    17.5230    -4.5310 ca         1 QXH      -0.063300
      2 C13        -30.1910    15.0010    -4.6970 ca         1 QXH      -0.134000
      3 C14        -28.2870    18.8920    -4.4460 c3         1 QXH       0.215100
      4 N16        -27.1490    19.0500    -5.3820 n3         1 QXH      -0.719600
      5 C17        -26.6000    20.4400    -5.3870 c6         1 QXH       0.165300
      6 C18        -25.4210    20.6120    -6.3980 c6         1 QXH       0.165550
      7 N19        -24.3160    19.6340    -6.1570 n3         1 QXH      -0.727600
      8 C20        -24.8640    18.2410    -6.1500 c6         1 QXH       0.165550
      9 C21        -26.0450    18.0680    -5.1420 c6         1 QXH       0.165300
     10 C22        -23.1840    19.8150    -7.0960 c3         1 QXH       0.215100
     11 C1         -32.3530    15.3090    -9.0350 c3         1 QXH      -0.253000
     12 C2         -33.8830    15.5170    -8.7320 c3         1 QXH      -0.060900
     13 C3         -34.9010    14.7170    -9.5740 c3         1 QXH      -0.091600
     14 C4         -31.9190    13.7920    -8.9690 c3         1 QXH      -0.060900
     15 C5         -32.1120    12.9480   -10.2550 c3         1 QXH      -0.091600
     16 C6         -31.5910    16.1720    -7.9960 c          1 QXH       0.608100
     17 C7         -31.9280    15.9060   -10.3920 c          1 QXH       0.605900
     18 O8         -32.6860    16.4630   -11.1790 o          1 QXH      -0.499100
     19 N9         -31.1130    15.4960    -6.8770 ns         1 QXH      -0.139000
     20 O10        -31.4120    17.3700    -8.1820 o          1 QXH      -0.577100
     21 C8         -30.3420    15.9140    -5.7570 ca         1 QXH      -0.032000
     22 C9         -29.7150    17.1760    -5.6680 ca         1 QXH      -0.134000
     23 C11        -28.8280    16.6000    -3.4770 ca         1 QXH      -0.111000
     24 C12        -29.4380    15.3360    -3.5540 ca         1 QXH      -0.063300
     25 C23        -21.9810    18.9320    -6.7710 ca         1 QXH      -0.072300
     26 C24        -21.2290    19.1650    -5.6020 ca         1 QXH      -0.100250
     27 C25        -20.1220    18.3530    -5.2950 ca         1 QXH      -0.088000
     28 C26        -19.7630    17.3050    -6.1580 ca         1 QXH      -0.018400
     29 C27        -20.5070    17.0650    -7.3250 ca         1 QXH      -0.088000
     30 C28        -21.6140    17.8770    -7.6310 ca         1 QXH      -0.100250
     31 Br1        -18.2590    16.1990    -5.7420 br         1 QXH      -0.104100
     32 C33        -29.2850    14.3410    -2.4060 c3         1 QXH       0.215100
     33 N34        -29.9850    14.7570    -1.1670 n3         1 QXH      -0.719600
     34 C35        -31.4640    14.9050    -1.3450 c6         1 QXH       0.165300
     35 C36        -32.1770    15.3630    -0.0320 c6         1 QXH       0.165550
     36 N37        -31.8930    14.4540     1.1200 n3         1 QXH      -0.727600
     37 C38        -30.4130    14.3050     1.2970 c6         1 QXH       0.165550
     38 C39        -29.7000    13.8480    -0.0160 c6         1 QXH       0.165300
     39 C40        -32.5920    14.8700     2.3580 c3         1 QXH       0.215100
     40 C41        -32.4440    13.8710     3.5040 ca         1 QXH      -0.072300
     41 C42        -33.0540    12.6040     3.4200 ca         1 QXH      -0.100250
     42 C43        -32.9180    11.6790     4.4700 ca         1 QXH      -0.088000
     43 C44        -32.1710    12.0190     5.6100 ca         1 QXH      -0.018400
     44 C45        -31.5590    13.2800     5.7020 ca         1 QXH      -0.088000
     45 C46        -31.6950    14.2040     4.6510 ca         1 QXH      -0.100250
     46 Br2        -31.9840    10.7610     7.0380 br         1 QXH      -0.104100
     47 H1         -30.6660    14.0240    -4.7560 ha         1 QXH       0.131500
     48 H2         -27.9510    19.0650    -3.4150 h1         1 QXH       0.039450
     49 H3         -29.0490    19.6540    -4.6610 h1         1 QXH       0.039450
     50 H5         -26.2390    20.7070    -4.3820 h1         1 QXH       0.039825
     51 H6         -27.3900    21.1600    -5.6460 h1         1 QXH       0.039825
     52 H7         -25.0420    21.6410    -6.3210 h1         1 QXH       0.041075
     53 H8         -25.8170    20.4910    -7.4180 h1         1 QXH       0.041075
     54 H10        -25.2210    17.9700    -7.1550 h1         1 QXH       0.041075
     55 H11        -24.0780    17.5180    -5.8850 h1         1 QXH       0.041075
     56 H12        -26.4190    17.0380    -5.2260 h1         1 QXH       0.039825
     57 H13        -25.6520    18.1840    -4.1210 h1         1 QXH       0.039825
     58 H14        -23.5130    19.6120    -8.1240 h1         1 QXH       0.041200
     59 H15        -22.8480    20.8610    -7.0720 h1         1 QXH       0.041200
     60 H16        -34.1230    16.5830    -8.8370 hc         1 QXH       0.046950
     61 H17        -34.0700    15.2760    -7.6770 hc         1 QXH       0.046950
     62 H18        -35.9170    15.0740    -9.3690 hc         1 QXH       0.040200
     63 H19        -34.7170    14.8290   -10.6490 hc         1 QXH       0.040200
     64 H20        -34.8720    13.6520    -9.3150 hc         1 QXH       0.040200
     65 H21        -32.4380    13.2960    -8.1380 hc         1 QXH       0.046950
     66 H22        -30.8470    13.7300    -8.7410 hc         1 QXH       0.046950
     67 H23        -31.8250    11.9080   -10.0630 hc         1 QXH       0.040200
     68 H24        -33.1480    12.9430   -10.6050 hc         1 QXH       0.040200
     69 H25        -31.4780    13.3160   -11.0700 hc         1 QXH       0.040200
     70 H26        -30.8470    15.7980   -10.6330 h4         1 QXH      -0.002800
     71 H27        -31.3620    14.5160    -6.8530 hn         1 QXH       0.152000
     72 H28        -29.7870    17.8990    -6.4730 ha         1 QXH       0.131500
     73 H29        -28.2490    16.8620    -2.5940 ha         1 QXH       0.131000
     74 H30        -21.5080    19.9730    -4.9300 ha         1 QXH       0.123250
     75 H31        -19.5470    18.5370    -4.3910 ha         1 QXH       0.128500
     76 H32        -20.2290    16.2520    -7.9920 ha         1 QXH       0.128500
     77 H33        -22.1870    17.6840    -8.5350 ha         1 QXH       0.123250
     78 H34        -29.6510    13.3560    -2.7300 h1         1 QXH       0.039450
     79 H35        -28.2120    14.2270    -2.2020 h1         1 QXH       0.039450
     80 H37        -31.6860    15.6410    -2.1310 h1         1 QXH       0.039825
     81 H38        -31.9030    13.9500    -1.6670 h1         1 QXH       0.039825
     82 H39        -31.8480    16.3860     0.2040 h1         1 QXH       0.041075
     83 H40        -33.2590    15.4110    -0.2210 h1         1 QXH       0.041075
     84 H42        -30.1900    13.5690     2.0830 h1         1 QXH       0.041075
     85 H43        -29.9730    15.2610     1.6180 h1         1 QXH       0.041075
     86 H44        -30.0300    12.8250    -0.2530 h1         1 QXH       0.039825
     87 H45        -28.6180    13.8000     0.1720 h1         1 QXH       0.039825
     88 H46        -32.2240    15.8520     2.6850 h1         1 QXH       0.041200
     89 H47        -33.6650    14.9880     2.1540 h1         1 QXH       0.041200
     90 H48        -33.6290    12.3370     2.5360 ha         1 QXH       0.123250
     91 H49        -33.3910    10.7020     4.3980 ha         1 QXH       0.128500
     92 H50        -30.9790    13.5410     6.5840 ha         1 QXH       0.128500
     93 H51        -31.2160    15.1780     4.7280 ha         1 QXH       0.123250
@<TRIPOS>BOND
     1     1     3 1   
     2     1    22 ar  
     3     1    23 ar  
     4     2    21 ar  
     5     2    24 ar  
     6     2    47 1   
     7     3     4 1   
     8     3    48 1   
     9     3    49 1   
    10     4     5 1   
    11     4     9 1   
    12     5     6 1   
    13     5    50 1   
    14     5    51 1   
    15     6     7 1   
    16     6    52 1   
    17     6    53 1   
    18     7     8 1   
    19     7    10 1   
    20     8     9 1   
    21     8    54 1   
    22     8    55 1   
    23     9    56 1   
    24     9    57 1   
    25    10    25 1   
    26    10    58 1   
    27    10    59 1   
    28    11    12 1   
    29    11    14 1   
    30    11    16 1   
    31    11    17 1   
    32    12    13 1   
    33    12    60 1   
    34    12    61 1   
    35    13    62 1   
    36    13    63 1   
    37    13    64 1   
    38    14    15 1   
    39    14    65 1   
    40    14    66 1   
    41    15    67 1   
    42    15    68 1   
    43    15    69 1   
    44    16    19 1   
    45    16    20 2   
    46    17    18 2   
    47    17    70 1   
    48    19    21 1   
    49    19    71 1   
    50    21    22 ar  
    51    22    72 1   
    52    23    24 ar  
    53    23    73 1   
    54    24    32 1   
    55    25    26 ar  
    56    25    30 ar  
    57    26    27 ar  
    58    26    74 1   
    59    27    28 ar  
    60    27    75 1   
    61    28    29 ar  
    62    28    31 1   
    63    29    30 ar  
    64    29    76 1   
    65    30    77 1   
    66    32    33 1   
    67    32    78 1   
    68    32    79 1   
    69    33    34 1   
    70    33    38 1   
    71    34    35 1   
    72    34    80 1   
    73    34    81 1   
    74    35    36 1   
    75    35    82 1   
    76    35    83 1   
    77    36    37 1   
    78    36    39 1   
    79    37    38 1   
    80    37    84 1   
    81    37    85 1   
    82    38    86 1   
    83    38    87 1   
    84    39    40 1   
    85    39    88 1   
    86    39    89 1   
    87    40    41 ar  
    88    40    45 ar  
    89    41    42 ar  
    90    41    90 1   
    91    42    43 ar  
    92    42    91 1   
    93    43    44 ar  
    94    43    46 1   
    95    44    45 ar  
    96    44    92 1   
    97    45    93 1   
@<TRIPOS>SUBSTRUCTURE
     1 QXH         1 TEMP              0 ****  ****    0 ROOT
