@<TRIPOS>MOLECULE
QXI
   62    67     1     0     0
SMALL
abcg2


@<TRIPOS>ATOM
      1 N1         -27.1010     5.1410    25.6020 na         1 QXI      -0.376000
      2 N3         -25.9440     4.5160    23.8510 nc         1 QXI      -0.356000
      3 C4         -27.7880     5.4730    24.4760 cd         1 QXI       0.385400
      4 C5         -25.9580     4.5500    25.1620 cd         1 QXI       0.359800
      5 C7         -22.8580     5.0360    27.8570 c3         1 QXI      -0.147400
      6 C8         -21.8110     5.1630    28.9870 c6         1 QXI      -0.047700
      7 C10        -21.0190     6.6390    30.8660 c6         1 QXI       0.161600
      8 C13        -22.6170     2.3110    32.1490 ca         1 QXI      -0.060000
      9 C15        -22.4330     2.8480    29.8030 ca         1 QXI      -0.058000
     10 C17        -20.3910     4.8880    28.4210 c          1 QXI       0.593100
     11 C20        -16.4770     5.3850    25.2440 ca         1 QXI       0.350900
     12 C21        -17.1850     6.6100    25.2490 ca         1 QXI      -0.087000
     13 C22        -16.6860     7.7650    24.6040 ca         1 QXI      -0.076000
     14 C24        -18.6090     9.0080    25.3570 ca         1 QXI      -0.085000
     15 C26        -18.4260     6.6700    25.9430 ca         1 QXI      -0.028000
     16 O2         -19.5610     4.2470    29.0470 o          1 QXI      -0.552100
     17 N4         -20.1250     5.4600    27.2140 ns         1 QXI      -0.159000
     18 C18        -18.8780     5.4680    26.5570 ca         1 QXI      -0.082000
     19 C25        -19.1200     7.9020    25.9910 ca         1 QXI      -0.115000
     20 C23        -17.3880     8.9410    24.6510 ca         1 QXI      -0.111000
     21 N5         -16.9070     4.2940    25.8350 nb         1 QXI      -0.644000
     22 C19        -18.1020     4.3370    26.4740 ca         1 QXI       0.328900
     23 C16        -22.0710     4.1600    30.1020 ca         1 QXI      -0.124300
     24 C14        -22.7040     1.9420    30.8130 ca         1 QXI       0.091000
     25 CL         -23.1680     0.3010    30.3960 cl         1 QXI      -0.218000
     26 C12        -22.2380     3.6070    32.4570 ca         1 QXI      -0.131000
     27 C11        -21.9570     4.5280    31.4460 ca         1 QXI       0.172100
     28 O1         -21.6080     5.7790    31.8570 os         1 QXI      -0.341100
     29 C9         -21.8030     6.5940    29.5750 c6         1 QXI      -0.111400
     30 O          -24.6510     5.4090    29.4260 o          1 QXI      -0.583100
     31 N          -25.2100     4.4560    27.4550 n          1 QXI      -0.430800
     32 C2         -26.6190     4.3770    27.8340 c6         1 QXI       0.079000
     33 C3         -27.4390     5.3550    27.0080 c6         1 QXI       0.059600
     34 C1         -24.9010     4.0170    26.0880 c6         1 QXI       0.097400
     35 C          -24.7620     2.4940    25.9880 c3         1 QXI      -0.100100
     36 N2         -27.1160     5.1080    23.4130 nc         1 QXI      -0.355000
     37 H1         -28.7460     5.9650    24.4890 h5         1 QXI       0.066100
     38 H2         -22.6300     4.1570    27.2580 hc         1 QXI       0.066700
     39 H3         -22.7860     5.8950    27.1830 hc         1 QXI       0.066700
     40 H4         -19.9800     6.3350    30.7170 h1         1 QXI       0.066700
     41 H5         -21.0330     7.6350    31.3030 h1         1 QXI       0.066700
     42 H6         -22.8340     1.6000    32.9340 ha         1 QXI       0.132000
     43 H7         -22.5130     2.5290    28.7730 ha         1 QXI       0.118000
     44 H9         -15.7420     7.7010    24.0760 ha         1 QXI       0.121000
     45 H10        -19.1460     9.9470    25.4030 ha         1 QXI       0.116000
     46 H11        -20.8470     6.0200    26.7910 hn         1 QXI       0.150000
     47 H12        -20.0500     7.9840    26.5380 ha         1 QXI       0.107000
     48 H13        -17.0080     9.8260    24.1570 ha         1 QXI       0.120000
     49 H14        -18.4360     3.4170    26.9330 h4         1 QXI       0.041100
     50 H15        -22.1520     3.9230    33.4890 ha         1 QXI       0.134000
     51 H16        -21.3730     7.2960    28.8600 hc         1 QXI       0.070200
     52 H17        -22.8320     6.8930    29.7660 hc         1 QXI       0.070200
     53 H18        -26.9730     3.3590    27.6660 h1         1 QXI       0.082700
     54 H19        -26.7080     4.6090    28.8890 h1         1 QXI       0.082700
     55 H20        -27.2030     6.3840    27.2800 h1         1 QXI       0.070200
     56 H21        -28.5060     5.1850    27.1460 h1         1 QXI       0.070200
     57 H22        -23.9660     4.4750    25.7780 h1         1 QXI       0.077700
     58 H23        -23.9490     2.1570    26.6310 hc         1 QXI       0.056367
     59 H24        -25.6820     1.9980    26.2950 hc         1 QXI       0.056367
     60 H25        -24.5400     2.2100    24.9600 hc         1 QXI       0.056367
     61 C6         -24.3080     4.9880    28.3250 c          1 QXI       0.613100
     62 H8         -15.5260     5.3310    24.7230 h4         1 QXI       0.023100
@<TRIPOS>BOND
     1     1     3 1   
     2     1     4 1   
     3     1    33 1   
     4     2     4 2   
     5     2    36 1   
     6     3    36 2   
     7     3    37 1   
     8     4    34 1   
     9     5     6 1   
    10     5    38 1   
    11     5    39 1   
    12     5    61 1   
    13     6    10 1   
    14     6    23 1   
    15     6    29 1   
    16     7    28 1   
    17     7    29 1   
    18     7    40 1   
    19     7    41 1   
    20     8    24 ar  
    21     8    26 ar  
    22     8    42 1   
    23     9    23 ar  
    24     9    24 ar  
    25     9    43 1   
    26    10    16 2   
    27    10    17 1   
    28    11    12 ar  
    29    11    21 ar  
    30    11    62 1   
    31    12    13 ar  
    32    12    15 ar  
    33    13    20 ar  
    34    13    44 1   
    35    14    19 ar  
    36    14    20 ar  
    37    14    45 1   
    38    15    18 ar  
    39    15    19 ar  
    40    17    18 1   
    41    17    46 1   
    42    18    22 ar  
    43    19    47 1   
    44    20    48 1   
    45    21    22 ar  
    46    22    49 1   
    47    23    27 ar  
    48    24    25 1   
    49    26    27 ar  
    50    26    50 1   
    51    27    28 1   
    52    29    51 1   
    53    29    52 1   
    54    30    61 2   
    55    31    32 1   
    56    31    34 1   
    57    31    61 1   
    58    32    33 1   
    59    32    53 1   
    60    32    54 1   
    61    33    55 1   
    62    33    56 1   
    63    34    35 1   
    64    34    57 1   
    65    35    58 1   
    66    35    59 1   
    67    35    60 1   
@<TRIPOS>SUBSTRUCTURE
     1 QXI         1 TEMP              0 ****  ****    0 ROOT
