@<TRIPOS>MOLECULE
QXI
   62    67     1     0     0
SMALL
No Charge or Current Charge


@<TRIPOS>ATOM
      1 N1         -27.8070     4.8930    25.7460 na         1 QXI      -0.376000
      2 N3         -26.8000     4.4420    23.8530 nc         1 QXI      -0.356000
      3 C4         -28.6420     5.2680    24.7270 cd         1 QXI       0.385400
      4 C5         -26.6770     4.3880    25.1720 cd         1 QXI       0.359800
      5 C7         -23.1250     4.7950    27.6120 c3         1 QXI      -0.147400
      6 C8         -21.9070     5.0990    28.5700 c6         1 QXI      -0.047700
      7 C10        -20.9560     6.9170    30.1090 c6         1 QXI       0.161600
      8 C13        -22.1680     2.7140    32.2450 ca         1 QXI      -0.060000
      9 C15        -22.3530     2.8880    29.8250 ca         1 QXI      -0.058000
     10 C17        -20.6100     4.6460    27.7940 c          1 QXI       0.593100
     11 C20        -15.9470     5.4540    25.5800 ca         1 QXI       0.350900
     12 C21        -16.5800     6.7060    25.6870 ca         1 QXI      -0.087000
     13 C22        -15.9580     7.8650    25.1840 ca         1 QXI      -0.076000
     14 C24        -17.8570     9.1990    25.9100 ca         1 QXI      -0.085000
     15 C26        -17.8470     6.7860    26.3070 ca         1 QXI      -0.028000
     16 O2         -20.4250     3.4700    27.5050 o          1 QXI      -0.552100
     17 N4         -19.7060     5.6430    27.4380 ns         1 QXI      -0.159000
     18 C18        -18.4330     5.5920    26.7940 ca         1 QXI      -0.082000
     19 C25        -18.4820     8.0450    26.4140 ca         1 QXI      -0.115000
     20 C23        -16.5970     9.1100    25.2970 ca         1 QXI      -0.111000
     21 N5         -16.4910     4.3090    26.0490 nb         1 QXI      -0.644000
     22 C19        -17.7050     4.3840    26.6420 ca         1 QXI       0.328900
     23 C16        -21.9840     4.2540    29.8710 ca         1 QXI      -0.124300
     24 C14        -22.4440     2.1280    31.0010 ca         1 QXI       0.091000
     25 Cl         -22.9110     0.4340    30.9150 cl         1 QXI      -0.218000
     26 C12        -21.7950     4.0660    32.3090 ca         1 QXI      -0.131000
     27 C11        -21.6930     4.8320    31.1360 ca         1 QXI       0.172100
     28 O1         -21.3380     6.1590    31.2700 os         1 QXI      -0.341100
     29 C9         -21.9190     6.6230    28.9410 c6         1 QXI      -0.111400
     30 O          -24.8080     5.2280    29.3040 o          1 QXI      -0.583100
     31 N          -25.6070     4.2230    27.4120 n          1 QXI      -0.430800
     32 C2         -27.0070     4.1060    27.9450 c6         1 QXI       0.079000
     33 C3         -27.9990     5.0390    27.2000 c6         1 QXI       0.059600
     34 C1         -25.4730     3.8690    25.9520 c6         1 QXI       0.097400
     35 C          -25.2900     2.3410    25.7570 c3         1 QXI      -0.100100
     36 N2         -28.0430     4.9950    23.5730 nc         1 QXI      -0.355000
     37 H1         -29.6180     5.7140    24.8830 h5         1 QXI       0.066100
     38 H2         -22.9950     3.8430    27.0870 hc         1 QXI       0.066700
     39 H3         -23.1300     5.4840    26.7590 hc         1 QXI       0.066700
     40 H4         -19.9220     6.6550    29.8440 h1         1 QXI       0.066700
     41 H5         -20.9760     7.9860    30.3630 h1         1 QXI       0.066700
     42 H6         -22.2440     2.1230    33.1550 ha         1 QXI       0.132000
     43 H7         -22.5710     2.4040    28.8770 ha         1 QXI       0.118000
     44 H9         -14.9820     7.8020    24.7070 ha         1 QXI       0.121000
     45 H10        -18.3510    10.1650    25.9950 ha         1 QXI       0.116000
     46 H11        -19.9980     6.5780    27.6870 hn         1 QXI       0.150000
     47 H12        -19.4590     8.1480    26.8790 ha         1 QXI       0.107000
     48 H13        -16.1170    10.0060    24.9090 ha         1 QXI       0.120000
     49 H14        -18.0810     3.4370    27.0210 h4         1 QXI       0.041100
     50 H15        -21.5820     4.5240    33.2710 ha         1 QXI       0.134000
     51 H16        -21.6860     7.2560    28.0740 hc         1 QXI       0.070200
     52 H17        -22.9220     6.9350    29.2580 hc         1 QXI       0.070200
     53 H18        -27.3420     3.0660    27.8270 h1         1 QXI       0.082700
     54 H19        -27.0450     4.3230    29.0220 h1         1 QXI       0.082700
     55 H20        -27.8080     6.0840    27.4840 h1         1 QXI       0.070200
     56 H21        -29.0350     4.7900    27.4730 h1         1 QXI       0.070200
     57 H22        -24.5910     4.3620    25.5240 h1         1 QXI       0.077700
     58 H23        -24.4220     1.9710    26.3160 hc         1 QXI       0.056367
     59 H24        -26.1710     1.7870    26.1020 hc         1 QXI       0.056367
     60 H25        -25.1340     2.0940    24.7010 hc         1 QXI       0.056367
     61 C6         -24.5630     4.7860    28.1900 c          1 QXI       0.613100
     62 H8         -14.9700     5.3620    25.1060 h4         1 QXI       0.023100
@<TRIPOS>BOND
     1     1     3 1   
     2     1     4 1   
     3     1    33 1   
     4     2     4 2   
     5     2    36 1   
     6     3    36 2   
     7     3    37 1   
     8     4    34 1   
     9     5     6 1   
    10     5    38 1   
    11     5    39 1   
    12     5    61 1   
    13     6    10 1   
    14     6    23 1   
    15     6    29 1   
    16     7    28 1   
    17     7    29 1   
    18     7    40 1   
    19     7    41 1   
    20     8    24 ar  
    21     8    26 ar  
    22     8    42 1   
    23     9    23 ar  
    24     9    24 ar  
    25     9    43 1   
    26    10    16 2   
    27    10    17 1   
    28    11    12 ar  
    29    11    21 ar  
    30    11    62 1   
    31    12    13 ar  
    32    12    15 ar  
    33    13    20 ar  
    34    13    44 1   
    35    14    19 ar  
    36    14    20 ar  
    37    14    45 1   
    38    15    18 ar  
    39    15    19 ar  
    40    17    18 1   
    41    17    46 1   
    42    18    22 ar  
    43    19    47 1   
    44    20    48 1   
    45    21    22 ar  
    46    22    49 1   
    47    23    27 ar  
    48    24    25 1   
    49    26    27 ar  
    50    26    50 1   
    51    27    28 1   
    52    29    51 1   
    53    29    52 1   
    54    30    61 2   
    55    31    32 1   
    56    31    34 1   
    57    31    61 1   
    58    32    33 1   
    59    32    53 1   
    60    32    54 1   
    61    33    55 1   
    62    33    56 1   
    63    34    35 1   
    64    34    57 1   
    65    35    58 1   
    66    35    59 1   
    67    35    60 1   
@<TRIPOS>SUBSTRUCTURE
     1 QXI         1 TEMP              0 ****  ****    0 ROOT
