@<TRIPOS>MOLECULE
QXK
   69    72     1     0     0
SMALL
No Charge or Current Charge


@<TRIPOS>ATOM
      1 C1          31.6470   -14.7150    -8.6800 c3         1 QXK      -0.251000
      2 C2          32.6740   -15.2750    -9.7290 c3         1 QXK      -0.064400
      3 C3          33.7180   -16.2670    -9.1660 c3         1 QXK      -0.095100
      4 C4          32.3620   -13.9150    -7.5270 c3         1 QXK      -0.064400
      5 C5          33.1770   -12.6820    -7.9820 c3         1 QXK      -0.095100
      6 C6          30.6230   -13.7790    -9.3500 c          1 QXK       0.599900
      7 C12         29.4890   -18.2370    -6.4970 ca         1 QXK      -0.132000
      8 C13         28.9260   -19.1940    -5.6270 ca         1 QXK      -0.058300
      9 C14         29.1940   -19.1190    -4.2480 ca         1 QXK      -0.114000
     10 C15         30.0190   -18.1030    -3.7430 ca         1 QXK      -0.087000
     11 C16         30.5770   -17.1540    -4.6140 ca         1 QXK      -0.167000
     12 C17         24.5020   -18.7060    -5.9670 c6         1 QXK       0.164300
     13 C18         21.4800   -15.8020    -4.1290 ca         1 QXK      -0.108000
     14 O7          30.6520   -13.4500   -10.5310 o          1 QXK      -0.497100
     15 C8          30.7750   -15.8850    -8.1590 c          1 QXK       0.612100
     16 O9          29.9900   -16.4550    -8.9060 o          1 QXK      -0.585100
     17 N10         30.9170   -16.2100    -6.8130 ns         1 QXK      -0.137000
     18 C11         30.3150   -17.2050    -5.9960 ca         1 QXK      -0.026000
     19 N9          26.6000   -20.1360    -5.8220 n3         1 QXK      -0.726600
     20 C10         26.0040   -18.8730    -6.3620 c6         1 QXK       0.165300
     21 N18         23.6690   -19.8790    -6.3770 n3         1 QXK      -0.724600
     22 C19         24.2650   -21.1390    -5.8370 c6         1 QXK       0.164300
     23 C20         25.7670   -21.3070    -6.2350 c6         1 QXK       0.165300
     24 C21         22.2320   -19.7390    -6.0370 c3         1 QXK       0.214100
     25 C22         21.5510   -18.5430    -6.7150 ca         1 QXK      -0.072300
     26 C23         21.1360   -18.7130    -8.0520 ca         1 QXK      -0.092000
     27 C24         20.4960   -17.6760    -8.7470 ca         1 QXK      -0.108000
     28 C25         20.2620   -16.4500    -8.1130 ca         1 QXK      -0.102000
     29 C26         20.6710   -16.2540    -6.7820 ca         1 QXK      -0.037000
     30 C27         21.3200   -17.2950    -6.0690 ca         1 QXK      -0.029000
     31 C9          21.7230   -17.0470    -4.7330 ca         1 QXK      -0.106000
     32 C28         20.8330   -14.7840    -4.8430 ca         1 QXK      -0.111000
     33 C29         20.4300   -15.0100    -6.1670 ca         1 QXK      -0.096000
     34 H1          32.1270   -15.7850   -10.5330 hc         1 QXK       0.053950
     35 H2          33.2060   -14.4480   -10.2160 hc         1 QXK       0.053950
     36 H3          34.3420   -16.6560    -9.9790 hc         1 QXK       0.038867
     37 H4          34.3820   -15.7780    -8.4430 hc         1 QXK       0.038867
     38 H5          33.2330   -17.1190    -8.6760 hc         1 QXK       0.038867
     39 H6          33.0360   -14.5730    -6.9640 hc         1 QXK       0.053950
     40 H7          31.6080   -13.5640    -6.8090 hc         1 QXK       0.053950
     41 H8          33.5770   -12.1530    -7.1090 hc         1 QXK       0.038867
     42 H9          34.0270   -12.9750    -8.6090 hc         1 QXK       0.038867
     43 H10         32.5550   -11.9760    -8.5460 hc         1 QXK       0.038867
     44 H11         29.8240   -13.3960    -8.6770 h4         1 QXK      -0.005800
     45 H12         29.2750   -18.3180    -7.5580 ha         1 QXK       0.146000
     46 H13         28.7590   -19.8500    -3.5700 ha         1 QXK       0.133000
     47 H14         30.2250   -18.0500    -2.6760 ha         1 QXK       0.113000
     48 H15         31.2140   -16.3700    -4.2100 ha         1 QXK       0.107000
     49 H17         24.1270   -17.7830    -6.4320 h1         1 QXK       0.040200
     50 H18         21.7970   -15.6270    -3.1030 ha         1 QXK       0.111000
     51 H19         31.5850   -15.6340    -6.3190 hn         1 QXK       0.154000
     52 H23         26.5560   -17.9970    -5.9910 h1         1 QXK       0.040950
     53 H24         26.0800   -18.8580    -7.4590 h1         1 QXK       0.040950
     54 H26         23.7070   -22.0130    -6.2050 h1         1 QXK       0.040200
     55 H27         24.1920   -21.1510    -4.7390 h1         1 QXK       0.040200
     56 H28         26.1500   -22.2280    -5.7730 h1         1 QXK       0.040950
     57 H29         25.8250   -21.4460    -7.3250 h1         1 QXK       0.040950
     58 H30         21.7010   -20.6440    -6.3640 h1         1 QXK       0.040700
     59 H31         22.0940   -19.7030    -4.9500 h1         1 QXK       0.040700
     60 H32         21.3150   -19.6600    -8.5570 ha         1 QXK       0.131000
     61 H33         20.1820   -17.8250    -9.7780 ha         1 QXK       0.113000
     62 H34         19.7650   -15.6510    -8.6580 ha         1 QXK       0.112000
     63 H35         22.2340   -17.8020    -4.1450 ha         1 QXK       0.109000
     64 H36         20.6460   -13.8220    -4.3720 ha         1 QXK       0.112000
     65 H37         19.9310   -14.2140    -6.7170 ha         1 QXK       0.112000
     66 C7          28.0310   -20.3050    -6.1720 c3         1 QXK       0.212100
     67 H16         24.4450   -18.5640    -4.8770 h1         1 QXK       0.040200
     68 H20         28.3990   -21.2600    -5.7710 h1         1 QXK       0.043700
     69 H21         28.1470   -20.3590    -7.2640 h1         1 QXK       0.043700
@<TRIPOS>BOND
     1     1     2 1   
     2     1     4 1   
     3     1     6 1   
     4     1    15 1   
     5     2     3 1   
     6     2    34 1   
     7     2    35 1   
     8     3    36 1   
     9     3    37 1   
    10     3    38 1   
    11     4     5 1   
    12     4    39 1   
    13     4    40 1   
    14     5    41 1   
    15     5    42 1   
    16     5    43 1   
    17     6    14 2   
    18     6    44 1   
    19     7     8 ar  
    20     7    18 ar  
    21     7    45 1   
    22     8     9 ar  
    23     8    66 1   
    24     9    10 ar  
    25     9    46 1   
    26    10    11 ar  
    27    10    47 1   
    28    11    18 ar  
    29    11    48 1   
    30    12    20 1   
    31    12    21 1   
    32    12    49 1   
    33    12    67 1   
    34    13    31 ar  
    35    13    32 ar  
    36    13    50 1   
    37    15    16 2   
    38    15    17 1   
    39    17    18 1   
    40    17    51 1   
    41    19    20 1   
    42    19    23 1   
    43    19    66 1   
    44    20    52 1   
    45    20    53 1   
    46    21    22 1   
    47    21    24 1   
    48    22    23 1   
    49    22    54 1   
    50    22    55 1   
    51    23    56 1   
    52    23    57 1   
    53    24    25 1   
    54    24    58 1   
    55    24    59 1   
    56    25    26 ar  
    57    25    30 ar  
    58    26    27 ar  
    59    26    60 1   
    60    27    28 ar  
    61    27    61 1   
    62    28    29 ar  
    63    28    62 1   
    64    29    30 ar  
    65    29    33 ar  
    66    30    31 ar  
    67    31    63 1   
    68    32    33 ar  
    69    32    64 1   
    70    33    65 1   
    71    66    68 1   
    72    66    69 1   
@<TRIPOS>SUBSTRUCTURE
     1 QXK         1 TEMP              0 ****  ****    0 ROOT
