@<TRIPOS>MOLECULE
QXK
   69    72     1     0     0
SMALL
bcc


@<TRIPOS>ATOM
      1 C1          33.2180   -15.4430    -9.1860 c3         1 QXK      -0.251000
      2 C2          34.3870   -16.4410    -9.2690 c3         1 QXK      -0.064400
      3 C3          34.8460   -17.0040    -7.9310 c3         1 QXK      -0.095100
      4 C4          33.5580   -14.1720    -8.3800 c3         1 QXK      -0.064400
      5 C5          34.6960   -13.3410    -8.9610 c3         1 QXK      -0.095100
      6 C6          32.8090   -14.9730   -10.5750 c          1 QXK       0.599900
      7 C12         29.6280   -17.4640    -7.2130 ca         1 QXK      -0.150000
      8 C13         28.6550   -18.0490    -6.4060 ca         1 QXK      -0.058300
      9 C14         28.6630   -17.8220    -5.0350 ca         1 QXK      -0.132000
     10 C15         29.6420   -17.0090    -4.4800 ca         1 QXK      -0.105000
     11 C16         30.6200   -16.4390    -5.2740 ca         1 QXK      -0.185000
     12 C17         24.3280   -17.8890    -5.7060 c6         1 QXK       0.164300
     13 C18         18.5420   -18.4830    -3.3560 ca         1 QXK      -0.126000
     14 O7          33.3910   -15.2310   -11.5940 o          1 QXK      -0.497100
     15 C8          31.9740   -16.1910    -8.6880 c          1 QXK       0.679100
     16 O9          31.3500   -16.8780    -9.4790 o          1 QXK      -0.585100
     17 N10         31.6540   -16.0550    -7.3840 ns         1 QXK      -0.463100
     18 C11         30.6260   -16.6680    -6.6520 ca         1 QXK       0.066600
     19 N9          26.3820   -19.0280    -6.3490 n3         1 QXK      -0.726600
     20 C10         25.6110   -17.8110    -6.5100 c6         1 QXK       0.165300
     21 N18         23.5350   -19.0340    -6.1190 n3         1 QXK      -0.724600
     22 C19         24.3080   -20.2500    -5.9530 c6         1 QXK       0.164300
     23 C20         25.5930   -20.1750    -6.7530 c6         1 QXK       0.165300
     24 C21         22.2680   -19.1050    -5.4260 c3         1 QXK       0.214100
     25 C22         21.2200   -18.1510    -5.9510 ca         1 QXK      -0.072300
     26 C23         21.3940   -17.4760    -7.1310 ca         1 QXK      -0.110000
     27 C24         20.4170   -16.5860    -7.6230 ca         1 QXK      -0.126000
     28 C25         19.2570   -16.3820    -6.9340 ca         1 QXK      -0.120000
     29 C26         19.0200   -17.0760    -5.7240 ca         1 QXK      -0.037000
     30 C27         20.0040   -17.9710    -5.2250 ca         1 QXK      -0.029000
     31 C9          19.7230   -18.6690    -4.0250 ca         1 QXK      -0.124000
     32 C28         17.5750   -17.5860    -3.8500 ca         1 QXK      -0.129000
     33 C29         17.8130   -16.8990    -5.0080 ca         1 QXK      -0.114000
     34 H1          34.0990   -17.2640    -9.9270 hc         1 QXK       0.053950
     35 H2          35.2280   -15.9480    -9.7590 hc         1 QXK       0.053950
     36 H3          35.7030   -17.6600    -8.0820 hc         1 QXK       0.038867
     37 H4          35.1570   -16.2220    -7.2370 hc         1 QXK       0.038867
     38 H5          34.0720   -17.5940    -7.4400 hc         1 QXK       0.038867
     39 H6          33.8350   -14.4430    -7.3580 hc         1 QXK       0.053950
     40 H7          32.6620   -13.5490    -8.3010 hc         1 QXK       0.053950
     41 H8          34.8810   -12.4770    -8.3230 hc         1 QXK       0.038867
     42 H9          35.6250   -13.9070    -9.0210 hc         1 QXK       0.038867
     43 H10         34.4700   -12.9620    -9.9580 hc         1 QXK       0.038867
     44 H11         31.9230   -14.3090   -10.5790 h4         1 QXK      -0.005800
     45 H12         29.6010   -17.6420    -8.2760 ha         1 QXK       0.164000
     46 H13         27.9050   -18.2740    -4.4090 ha         1 QXK       0.151000
     47 H14         29.6490   -16.8210    -3.4150 ha         1 QXK       0.131000
     48 H15         31.3830   -15.8130    -4.8250 ha         1 QXK       0.125000
     49 H17         23.7560   -16.9710    -5.8560 h1         1 QXK       0.040200
     50 H18         18.3490   -19.0300    -2.4430 ha         1 QXK       0.129000
     51 H19         32.2570   -15.4650    -6.8300 hn         1 QXK       0.320500
     52 H23         26.1960   -16.9580    -6.1580 h1         1 QXK       0.040950
     53 H24         25.3700   -17.6250    -7.5710 h1         1 QXK       0.040950
     54 H26         23.7210   -21.1010    -6.3070 h1         1 QXK       0.040200
     55 H27         24.5510   -20.4390    -4.8940 h1         1 QXK       0.040200
     56 H28         26.1720   -21.0860    -6.5830 h1         1 QXK       0.040950
     57 H29         25.3450   -20.1420    -7.8280 h1         1 QXK       0.040950
     58 H30         21.8830   -20.1250    -5.5250 h1         1 QXK       0.040700
     59 H31         22.4010   -18.9440    -4.3440 h1         1 QXK       0.040700
     60 H32         22.3040   -17.6250    -7.6990 ha         1 QXK       0.149000
     61 H33         20.5980   -16.0640    -8.5550 ha         1 QXK       0.131000
     62 H34         18.5030   -15.6970    -7.3050 ha         1 QXK       0.130000
     63 H35         20.4440   -19.3680    -3.6230 ha         1 QXK       0.127000
     64 H36         16.6460   -17.4470    -3.3120 ha         1 QXK       0.130000
     65 H37         17.0730   -16.2110    -5.3990 ha         1 QXK       0.130000
     66 C7          27.6490   -18.9780    -7.0420 c3         1 QXK       0.212100
     67 H16         24.5760   -17.9440    -4.6320 h1         1 QXK       0.040200
     68 H20         28.0720   -19.9880    -7.0330 h1         1 QXK       0.043700
     69 H21         27.5300   -18.7120    -8.1050 h1         1 QXK       0.043700
@<TRIPOS>BOND
     1     1     2 1   
     2     1     4 1   
     3     1     6 1   
     4     1    15 1   
     5     2     3 1   
     6     2    34 1   
     7     2    35 1   
     8     3    36 1   
     9     3    37 1   
    10     3    38 1   
    11     4     5 1   
    12     4    39 1   
    13     4    40 1   
    14     5    41 1   
    15     5    42 1   
    16     5    43 1   
    17     6    14 2   
    18     6    44 1   
    19     7     8 ar  
    20     7    18 ar  
    21     7    45 1   
    22     8     9 ar  
    23     8    66 1   
    24     9    10 ar  
    25     9    46 1   
    26    10    11 ar  
    27    10    47 1   
    28    11    18 ar  
    29    11    48 1   
    30    12    20 1   
    31    12    21 1   
    32    12    49 1   
    33    12    67 1   
    34    13    31 ar  
    35    13    32 ar  
    36    13    50 1   
    37    15    16 2   
    38    15    17 1   
    39    17    18 1   
    40    17    51 1   
    41    19    20 1   
    42    19    23 1   
    43    19    66 1   
    44    20    52 1   
    45    20    53 1   
    46    21    22 1   
    47    21    24 1   
    48    22    23 1   
    49    22    54 1   
    50    22    55 1   
    51    23    56 1   
    52    23    57 1   
    53    24    25 1   
    54    24    58 1   
    55    24    59 1   
    56    25    26 ar  
    57    25    30 ar  
    58    26    27 ar  
    59    26    60 1   
    60    27    28 ar  
    61    27    61 1   
    62    28    29 ar  
    63    28    62 1   
    64    29    30 ar  
    65    29    33 ar  
    66    30    31 ar  
    67    31    63 1   
    68    32    33 ar  
    69    32    64 1   
    70    33    65 1   
    71    66    68 1   
    72    66    69 1   
@<TRIPOS>SUBSTRUCTURE
     1 QXK         1 TEMP              0 ****  ****    0 ROOT
