@<TRIPOS>MOLECULE
QXL
   32    34     1     0     0
SMALL
No Charge or Current Charge


@<TRIPOS>ATOM
      1 C17        -45.0180   -29.7920     0.5970 c6         1 QXL      -0.318400
      2 C15        -44.3040   -29.6110     6.2440 ca         1 QXL       0.172900
      3 C13        -46.4570   -28.8730     6.4660 ca         1 QXL       0.145500
      4 C11        -48.6090   -28.1830     5.9590 cc         1 QXL      -0.178100
      5 C10        -47.9330   -28.4990     4.7930 cd         1 QXL      -0.199200
      6 C03        -45.2460   -27.0970    -0.0070 c6         1 QXL      -0.303400
      7 C04        -44.7680   -26.8210     1.4400 c6         1 QXL      -0.057400
      8 C05        -43.8490   -27.9550     1.9660 c6         1 QXL      -0.112400
      9 C06        -44.5120   -29.3610     1.9830 c6         1 QXL       0.268500
     10 C08        -45.5170   -29.3500     4.3110 ca         1 QXL       0.432900
     11 C09        -46.5900   -28.9310     5.1030 ca         1 QXL      -0.252800
     12 N07        -45.6280   -29.4130     2.9300 nu         1 QXL      -0.940100
     13 N12        -47.6640   -28.4260     6.9830 na         1 QXL      -0.324400
     14 N14        -45.3040   -29.2130     7.0700 nb         1 QXL      -0.226000
     15 N16        -44.3510   -29.6970     4.8910 nb         1 QXL      -0.305000
     16 S02        -46.1900   -28.6380    -0.1520 s6         1 QXL       1.098000
     17 H172       -44.1840   -29.8600    -0.1110 h1         1 QXL       0.113200
     18 H171       -45.5270   -30.7610     0.6420 h1         1 QXL       0.113200
     19 H151       -43.3640   -29.8900     6.7170 h5         1 QXL       0.044100
     20 H111       -49.6220   -27.8260     6.1360 h4         1 QXL       0.218000
     21 H101       -48.3650   -28.4260     3.7960 ha         1 QXL       0.213000
     22 H032       -45.9110   -26.3030    -0.3660 h1         1 QXL       0.104200
     23 H031       -44.3970   -27.1960    -0.6950 h1         1 QXL       0.104200
     24 H041       -44.2210   -25.8680     1.4680 hc         1 QXL       0.064200
     25 H042       -45.6310   -26.6930     2.1100 hc         1 QXL       0.064200
     26 H052       -42.9430   -27.9980     1.3460 hc         1 QXL       0.068700
     27 H051       -43.5000   -27.7000     2.9750 hc         1 QXL       0.068700
     28 H061       -43.7420   -30.0910     2.2870 h1         1 QXL       0.096700
     29 H071       -46.5460   -29.1380     2.5830 hn         1 QXL       0.520000
     30 H121       -47.8340   -28.2940     7.9750 hn         1 QXL       0.362000
     31 O01        -46.3400   -28.9710    -1.5740 o          1 QXL      -0.528000
     32 O18        -47.3770   -28.5490     0.7100 o          1 QXL      -0.528000
@<TRIPOS>BOND
     1     1     9 1   
     2     1    16 1   
     3     1    17 1   
     4     1    18 1   
     5     2    14 ar  
     6     2    15 ar  
     7     2    19 1   
     8     3    11 ar  
     9     3    13 1   
    10     3    14 ar  
    11     4     5 2   
    12     4    13 1   
    13     4    20 1   
    14     5    11 1   
    15     5    21 1   
    16     6     7 1   
    17     6    16 1   
    18     6    22 1   
    19     6    23 1   
    20     7     8 1   
    21     7    24 1   
    22     7    25 1   
    23     8     9 1   
    24     8    26 1   
    25     8    27 1   
    26     9    12 1   
    27     9    28 1   
    28    10    11 ar  
    29    10    12 1   
    30    10    15 ar  
    31    12    29 1   
    32    13    30 1   
    33    16    31 2   
    34    16    32 2   
@<TRIPOS>SUBSTRUCTURE
     1 QXL         1 TEMP              0 ****  ****    0 ROOT
