@<TRIPOS>MOLECULE
QXL
   32    34     1     0     0
SMALL
abcg2


@<TRIPOS>ATOM
      1 C17        -45.0820   -29.7780     0.6810 c6         1 QXL      -0.318400
      2 C15        -44.3530   -29.4900     6.1890 ca         1 QXL       0.172900
      3 C13        -46.4920   -28.9780     6.5070 ca         1 QXL       0.145500
      4 C11        -48.6480   -28.4520     6.2150 cc         1 QXL      -0.178100
      5 C10        -48.1180   -28.5570     4.9560 cd         1 QXL      -0.199200
      6 C03        -45.0350   -27.1410    -0.1910 c6         1 QXL      -0.303400
      7 C04        -44.5940   -26.8080     1.2360 c6         1 QXL      -0.057400
      8 C05        -43.8050   -27.9420     1.8890 c6         1 QXL      -0.112400
      9 C06        -44.6050   -29.2460     2.0380 c6         1 QXL       0.268500
     10 C08        -45.6240   -29.1470     4.2930 ca         1 QXL       0.432900
     11 C09        -46.7370   -28.8930     5.1250 ca         1 QXL      -0.252800
     12 N07        -45.7340   -29.1160     2.9470 nu         1 QXL      -0.940100
     13 N12        -47.6630   -28.7060     7.1510 na         1 QXL      -0.324400
     14 N14        -45.3130   -29.2760     7.0780 nb         1 QXL      -0.226000
     15 N16        -44.4370   -29.4410     4.8510 nb         1 QXL      -0.305000
     16 S02        -46.0730   -28.5910    -0.2180 s6         1 QXL       1.098000
     17 H172       -44.2290   -30.0020     0.0410 h1         1 QXL       0.113200
     18 H171       -45.7050   -30.6680     0.7810 h1         1 QXL       0.113200
     19 H151       -43.3730   -29.7350     6.5870 h5         1 QXL       0.044100
     20 H111       -49.6510   -28.2160     6.5300 h4         1 QXL       0.218000
     21 H101       -48.6530   -28.4120     4.0310 ha         1 QXL       0.213000
     22 H032       -45.6360   -26.3500    -0.6430 h1         1 QXL       0.104200
     23 H031       -44.1880   -27.3640    -0.8420 h1         1 QXL       0.104200
     24 H041       -43.9760   -25.9100     1.1880 hc         1 QXL       0.064200
     25 H042       -45.4690   -26.5570     1.8390 hc         1 QXL       0.064200
     26 H052       -42.9100   -28.1570     1.2980 hc         1 QXL       0.068700
     27 H051       -43.4720   -27.6340     2.8810 hc         1 QXL       0.068700
     28 H061       -43.9440   -30.0060     2.4530 h1         1 QXL       0.096700
     29 H071       -46.6060   -28.7930     2.5560 hn         1 QXL       0.520000
     30 H121       -47.7880   -28.6960     8.1510 hn         1 QXL       0.362000
     31 O01        -46.2550   -29.0470    -1.5850 o          1 QXL      -0.528000
     32 O18        -47.2740   -28.3150     0.5640 o          1 QXL      -0.528000
@<TRIPOS>BOND
     1     1     9 1   
     2     1    16 1   
     3     1    17 1   
     4     1    18 1   
     5     2    14 ar  
     6     2    15 ar  
     7     2    19 1   
     8     3    11 ar  
     9     3    13 1   
    10     3    14 ar  
    11     4     5 2   
    12     4    13 1   
    13     4    20 1   
    14     5    11 1   
    15     5    21 1   
    16     6     7 1   
    17     6    16 1   
    18     6    22 1   
    19     6    23 1   
    20     7     8 1   
    21     7    24 1   
    22     7    25 1   
    23     8     9 1   
    24     8    26 1   
    25     8    27 1   
    26     9    12 1   
    27     9    28 1   
    28    10    11 ar  
    29    10    12 1   
    30    10    15 ar  
    31    12    29 1   
    32    13    30 1   
    33    16    31 2   
    34    16    32 2   
@<TRIPOS>SUBSTRUCTURE
     1 QXL         1 TEMP              0 ****  ****    0 ROOT
