@<TRIPOS>MOLECULE
QXN
   53    54     1     0     0
SMALL
bcc


@<TRIPOS>ATOM
      1 C1          35.0790    14.1570    14.5020 c3         1 QXN      -0.256000
      2 C2          35.9210    13.7570    13.2690 c3         1 QXN      -0.062900
      3 C3          35.6800    14.5620    11.9970 c3         1 QXN      -0.095100
      4 C4          35.6200    13.5110    15.7930 c3         1 QXN      -0.062900
      5 C5          35.8160    12.0000    15.7340 c3         1 QXN      -0.095100
      6 C6          33.6300    13.7690    14.2450 c          1 QXN       0.603900
      7 C7          35.0340    15.6760    14.6960 c          1 QXN       0.684100
      8 N8          36.2410    16.2830    14.7540 ns         1 QXN      -0.464100
      9 C9          36.5490    17.6420    14.8980 ca         1 QXN       0.065600
     10 C10         37.8820    18.0050    14.7080 ca         1 QXN      -0.184000
     11 C11         38.2680    19.3290    14.8350 ca         1 QXN      -0.107000
     12 C12         37.3390    20.3080    15.1490 ca         1 QXN      -0.128000
     13 C13         36.0070    19.9560    15.3470 ca         1 QXN      -0.059300
     14 C14         35.6140    18.6280    15.2200 ca         1 QXN      -0.146000
     15 C15         34.9940    21.0110    15.7110 c3         1 QXN       0.211100
     16 N16         34.9730    22.1010    14.7570 n3         1 QXN      -0.721600
     17 C17         34.2020    23.2270    15.2480 c6         1 QXN       0.163800
     18 C18         34.2500    24.3760    14.2590 c6         1 QXN       0.164300
     19 N19         33.7520    23.9590    12.9650 n3         1 QXN      -0.717600
     20 C20         34.5200    22.8330    12.4740 c6         1 QXN       0.164300
     21 C21         34.4760    21.6820    13.4600 c6         1 QXN       0.163800
     22 C22         33.7360    25.0480    12.0180 c3         1 QXN       0.154100
     23 O24         32.9340    13.1650    15.0170 o          1 QXN      -0.500100
     24 O25         33.9660    16.2550    14.8060 o          1 QXN      -0.583100
     25 H1          35.7340    12.7000    13.0610 hc         1 QXN       0.049200
     26 H2          36.9810    13.8100    13.5360 hc         1 QXN       0.049200
     27 H3          36.3030    14.1710    11.1940 hc         1 QXN       0.040700
     28 H4          34.6470    14.5070    11.6540 hc         1 QXN       0.040700
     29 H5          35.9340    15.6160    12.1170 hc         1 QXN       0.040700
     30 H6          36.5830    13.9700    16.0290 hc         1 QXN       0.049200
     31 H7          34.9560    13.7640    16.6220 hc         1 QXN       0.049200
     32 H8          36.1460    11.6370    16.7070 hc         1 QXN       0.040700
     33 H9          34.8990    11.4710    15.4800 hc         1 QXN       0.040700
     34 H10         36.5790    11.7180    15.0090 hc         1 QXN       0.040700
     35 H11         33.2380    14.0590    13.2540 h4         1 QXN       0.000200
     36 H12         37.0460    15.6880    14.6200 hn         1 QXN       0.319500
     37 H13         38.6170    17.2490    14.4550 ha         1 QXN       0.125000
     38 H14         39.3060    19.5940    14.6830 ha         1 QXN       0.131000
     39 H15         37.6450    21.3420    15.2370 ha         1 QXN       0.146000
     40 H16         34.5770    18.3750    15.3720 ha         1 QXN       0.164000
     41 H17         35.2540    21.4280    16.6890 h1         1 QXN       0.042200
     42 H18         34.0020    20.5450    15.8260 h1         1 QXN       0.042200
     43 H20         34.6200    23.5560    16.2020 h1         1 QXN       0.040200
     44 H21         33.1490    22.9510    15.4310 h1         1 QXN       0.040200
     45 H22         35.2850    24.7550    14.1940 h1         1 QXN       0.036950
     46 H23         33.6310    25.1960    14.6330 h1         1 QXN       0.036950
     47 H25         34.1020    22.5020    11.5200 h1         1 QXN       0.036950
     48 H26         35.5730    23.1090    12.2870 h1         1 QXN       0.036950
     49 H27         33.4430    21.3010    13.5300 h1         1 QXN       0.040200
     50 H28         35.0940    20.8660    13.0800 h1         1 QXN       0.040200
     51 H29         33.1110    25.8610    12.3910 h1         1 QXN       0.029367
     52 H30         34.7360    25.4620    11.8150 h1         1 QXN       0.029367
     53 H31         33.3160    24.7130    11.0680 h1         1 QXN       0.029367
@<TRIPOS>BOND
     1     1     2 1   
     2     1     4 1   
     3     1     6 1   
     4     1     7 1   
     5     2     3 1   
     6     2    25 1   
     7     2    26 1   
     8     3    27 1   
     9     3    28 1   
    10     3    29 1   
    11     4     5 1   
    12     4    30 1   
    13     4    31 1   
    14     5    32 1   
    15     5    33 1   
    16     5    34 1   
    17     6    23 2   
    18     6    35 1   
    19     7     8 1   
    20     7    24 2   
    21     8     9 1   
    22     8    36 1   
    23     9    10 ar  
    24     9    14 ar  
    25    10    11 ar  
    26    10    37 1   
    27    11    12 ar  
    28    11    38 1   
    29    12    13 ar  
    30    12    39 1   
    31    13    14 ar  
    32    13    15 1   
    33    14    40 1   
    34    15    16 1   
    35    15    41 1   
    36    15    42 1   
    37    16    17 1   
    38    16    21 1   
    39    17    18 1   
    40    17    43 1   
    41    17    44 1   
    42    18    19 1   
    43    18    45 1   
    44    18    46 1   
    45    19    20 1   
    46    19    22 1   
    47    20    21 1   
    48    20    47 1   
    49    20    48 1   
    50    21    49 1   
    51    21    50 1   
    52    22    51 1   
    53    22    52 1   
    54    22    53 1   
@<TRIPOS>SUBSTRUCTURE
     1 QXN         1 TEMP              0 ****  ****    0 ROOT
