@<TRIPOS>MOLECULE
QXN
   53    54     1     0     0
SMALL
No Charge or Current Charge


@<TRIPOS>ATOM
      1 C1          35.0060    14.2620    14.3600 c3         1 QXN      -0.256000
      2 C2          36.1980    13.7680    13.4560 c3         1 QXN      -0.062900
      3 C3          36.3140    14.4180    12.0540 c3         1 QXN      -0.095100
      4 C4          35.0450    13.5550    15.7630 c3         1 QXN      -0.062900
      5 C5          35.1200    12.0080    15.7660 c3         1 QXN      -0.095100
      6 C6          33.6690    14.0250    13.6240 c          1 QXN       0.603900
      7 C7          35.0410    15.7860    14.6320 c          1 QXN       0.617100
      8 N8          36.3030    16.3720    14.6240 ns         1 QXN      -0.138000
      9 C9          36.7450    17.7080    14.8230 ca         1 QXN      -0.027000
     10 C10         38.1030    17.9830    14.5790 ca         1 QXN      -0.166000
     11 C11         38.6140    19.2790    14.7530 ca         1 QXN      -0.089000
     12 C12         37.7690    20.3160    15.1770 ca         1 QXN      -0.110000
     13 C13         36.4090    20.0600    15.4330 ca         1 QXN      -0.059300
     14 C14         35.9020    18.7560    15.2570 ca         1 QXN      -0.128000
     15 C15         35.4940    21.1910    15.8990 c3         1 QXN       0.211100
     16 N16         35.1790    22.1730    14.8330 n3         1 QXN      -0.721600
     17 C17         34.4110    23.3480    15.3470 c6         1 QXN       0.163800
     18 C18         34.1070    24.3970    14.2290 c6         1 QXN       0.164300
     19 N19         33.3920    23.7930    13.0630 n3         1 QXN      -0.717600
     20 C20         34.1600    22.6190    12.5460 c6         1 QXN       0.164300
     21 C21         34.4660    21.5690    13.6630 c6         1 QXN       0.163800
     22 C22         33.0790    24.7810    12.0090 c3         1 QXN       0.154100
     23 O24         32.7560    13.3220    14.0430 o          1 QXN      -0.500100
     24 O25         34.0080    16.4230    14.8000 o          1 QXN      -0.583100
     25 H1          36.1000    12.6870    13.2910 hc         1 QXN       0.049200
     26 H2          37.1500    13.8980    13.9880 hc         1 QXN       0.049200
     27 H3          37.2150    14.0520    11.5480 hc         1 QXN       0.040700
     28 H4          35.4560    14.1590    11.4230 hc         1 QXN       0.040700
     29 H5          36.3850    15.5100    12.1090 hc         1 QXN       0.040700
     30 H6          35.9120    13.9260    16.3250 hc         1 QXN       0.049200
     31 H7          34.1640    13.8580    16.3440 hc         1 QXN       0.049200
     32 H8          35.0220    11.6300    16.7900 hc         1 QXN       0.040700
     33 H9          34.3190    11.5600    15.1660 hc         1 QXN       0.040700
     34 H10         36.0830    11.6570    15.3770 hc         1 QXN       0.040700
     35 H11         33.5580    14.5620    12.6570 h4         1 QXN       0.000200
     36 H12         37.0550    15.7200    14.4440 hn         1 QXN       0.153000
     37 H13         38.7690    17.1880    14.2490 ha         1 QXN       0.107000
     38 H14         39.6650    19.4810    14.5570 ha         1 QXN       0.113000
     39 H15         38.1660    21.3200    15.3050 ha         1 QXN       0.128000
     40 H16         34.8520    18.5800    15.4660 ha         1 QXN       0.146000
     41 H17         35.9910    21.7020    16.7350 h1         1 QXN       0.042200
     42 H18         34.5650    20.7620    16.2990 h1         1 QXN       0.042200
     43 H20         34.9720    23.8470    16.1510 h1         1 QXN       0.040200
     44 H21         33.4560    23.0150    15.7810 h1         1 QXN       0.040200
     45 H22         35.0580    24.8420    13.9000 h1         1 QXN       0.036950
     46 H23         33.5060    25.2100    14.6630 h1         1 QXN       0.036950
     47 H25         33.5980    22.1210    11.7420 h1         1 QXN       0.036950
     48 H26         35.1140    22.9530    12.1110 h1         1 QXN       0.036950
     49 H27         33.5170    21.1200    13.9900 h1         1 QXN       0.040200
     50 H28         35.0670    20.7620    13.2190 h1         1 QXN       0.040200
     51 H29         32.4730    25.6010    12.4150 h1         1 QXN       0.029367
     52 H30         33.9980    25.2080    11.5860 h1         1 QXN       0.029367
     53 H31         32.5110    24.3110    11.1950 h1         1 QXN       0.029367
@<TRIPOS>BOND
     1     1     2 1   
     2     1     4 1   
     3     1     6 1   
     4     1     7 1   
     5     2     3 1   
     6     2    25 1   
     7     2    26 1   
     8     3    27 1   
     9     3    28 1   
    10     3    29 1   
    11     4     5 1   
    12     4    30 1   
    13     4    31 1   
    14     5    32 1   
    15     5    33 1   
    16     5    34 1   
    17     6    23 2   
    18     6    35 1   
    19     7     8 1   
    20     7    24 2   
    21     8     9 1   
    22     8    36 1   
    23     9    10 ar  
    24     9    14 ar  
    25    10    11 ar  
    26    10    37 1   
    27    11    12 ar  
    28    11    38 1   
    29    12    13 ar  
    30    12    39 1   
    31    13    14 ar  
    32    13    15 1   
    33    14    40 1   
    34    15    16 1   
    35    15    41 1   
    36    15    42 1   
    37    16    17 1   
    38    16    21 1   
    39    17    18 1   
    40    17    43 1   
    41    17    44 1   
    42    18    19 1   
    43    18    45 1   
    44    18    46 1   
    45    19    20 1   
    46    19    22 1   
    47    20    21 1   
    48    20    47 1   
    49    20    48 1   
    50    21    49 1   
    51    21    50 1   
    52    22    51 1   
    53    22    52 1   
    54    22    53 1   
@<TRIPOS>SUBSTRUCTURE
     1 QXN         1 TEMP              0 ****  ****    0 ROOT
