@<TRIPOS>MOLECULE
QXO
   21    22     1     0     0
SMALL
abcg2


@<TRIPOS>ATOM
      1 C           85.5630     4.3870    65.4150 c          1 QXO       0.703000
      2 F           81.5900     3.8600    69.6310 f          1 QXO      -0.211000
      3 N           84.6820     6.3100    66.8160 na         1 QXO      -0.030700
      4 O           86.5570     3.6560    65.1880 o          1 QXO      -0.710000
      5 C1          85.7740     5.3930    66.5790 c3         1 QXO      -0.089400
      6 O1          84.4610     4.3860    64.8240 o          1 QXO      -0.710000
      7 C2          84.5510     7.5560    66.2360 cc         1 QXO      -0.135100
      8 C3          83.3470     8.1120    66.5750 cd         1 QXO      -0.278200
      9 C4          82.6720     7.1590    67.4080 ca         1 QXO      -0.115800
     10 C5          83.5420     6.0370    67.5260 ca         1 QXO      -0.008200
     11 C6          83.1990     4.9040    68.2680 ca         1 QXO      -0.129000
     12 C7          81.9700     4.9420    68.8890 ca         1 QXO       0.143000
     13 C8          81.0820     6.0170    68.8070 ca         1 QXO      -0.194000
     14 C9          81.4340     7.1320    68.0620 ca         1 QXO      -0.054000
     15 H2          85.9660     4.8230    67.4890 h1         1 QXO       0.042700
     16 H3          86.6720     5.9750    66.3690 h1         1 QXO       0.042700
     17 H4          85.3490     7.9470    65.6260 h4         1 QXO       0.205000
     18 H5          82.9890     9.0840    66.2780 ha         1 QXO       0.185000
     19 H6          83.8420     4.0400    68.3580 ha         1 QXO       0.139000
     20 H7          80.1340     5.9600    69.3250 ha         1 QXO       0.107000
     21 H8          80.7540     7.9710    67.9900 ha         1 QXO       0.097000
@<TRIPOS>BOND
     1     1     4 1   
     2     1     5 1   
     3     1     6 1   
     4     2    12 1   
     5     3     5 1   
     6     3     7 1   
     7     3    10 1   
     8     5    15 1   
     9     5    16 1   
    10     7     8 2   
    11     7    17 1   
    12     8     9 1   
    13     8    18 1   
    14     9    10 ar  
    15     9    14 ar  
    16    10    11 ar  
    17    11    12 ar  
    18    11    19 1   
    19    12    13 ar  
    20    13    14 ar  
    21    13    20 1   
    22    14    21 1   
@<TRIPOS>SUBSTRUCTURE
     1 QXO         1 TEMP              0 ****  ****    0 ROOT
