@<TRIPOS>MOLECULE
QXO
   21    22     1     0     0
SMALL
No Charge or Current Charge


@<TRIPOS>ATOM
      1 C           85.5420     4.3780    65.4510 c          1 QXO       0.703000
      2 F           81.7500     3.7630    69.6830 f          1 QXO      -0.211000
      3 N           84.6380     6.3700    66.6850 na         1 QXO      -0.030700
      4 O           85.2590     3.2490    65.8250 o          1 QXO      -0.710000
      5 C1          85.7840     5.4590    66.5170 c3         1 QXO      -0.089400
      6 O1          85.6720     4.6880    64.2750 o          1 QXO      -0.710000
      7 C2          84.4840     7.6500    66.1160 cc         1 QXO      -0.135100
      8 C3          83.2570     8.0920    66.5930 cd         1 QXO      -0.278200
      9 C4          82.6570     7.1000    67.4480 ca         1 QXO      -0.115800
     10 C5          83.5390     6.0520    67.4800 ca         1 QXO      -0.008200
     11 C6          83.2640     4.8970    68.2300 ca         1 QXO      -0.129000
     12 C7          82.0520     4.8550    68.9490 ca         1 QXO       0.143000
     13 C8          81.1460     5.9410    68.9120 ca         1 QXO      -0.194000
     14 C9          81.4460     7.0910    68.1500 ca         1 QXO      -0.054000
     15 H2          86.0100     4.9750    67.4740 h1         1 QXO       0.042700
     16 H3          86.6620     6.0440    66.2200 h1         1 QXO       0.042700
     17 H4          85.2180     8.1060    65.4590 h4         1 QXO       0.205000
     18 H5          82.8160     9.0560    66.3510 ha         1 QXO       0.185000
     19 H6          83.9540     4.0590    68.2600 ha         1 QXO       0.139000
     20 H7          80.2170     5.8900    69.4730 ha         1 QXO       0.107000
     21 H8          80.7630     7.9360    68.1080 ha         1 QXO       0.097000
@<TRIPOS>BOND
     1     1     4 1   
     2     1     5 1   
     3     1     6 1   
     4     2    12 1   
     5     3     5 1   
     6     3     7 1   
     7     3    10 1   
     8     5    15 1   
     9     5    16 1   
    10     7     8 2   
    11     7    17 1   
    12     8     9 1   
    13     8    18 1   
    14     9    10 ar  
    15     9    14 ar  
    16    10    11 ar  
    17    11    12 ar  
    18    11    19 1   
    19    12    13 ar  
    20    13    14 ar  
    21    13    20 1   
    22    14    21 1   
@<TRIPOS>SUBSTRUCTURE
     1 QXO         1 TEMP              0 ****  ****    0 ROOT
