@<TRIPOS>MOLECULE
QXQ
   58    61     1     0     0
SMALL
bcc


@<TRIPOS>ATOM
      1 C1          34.7290   -31.1170   -42.9920 c3         1 QXQ      -0.252000
      2 C2          33.8730   -31.7970   -44.0900 c3         1 QXQ      -0.059900
      3 C3          32.9620   -32.9220   -43.6110 c3         1 QXQ      -0.094100
      4 C4          33.8620   -30.6700   -41.7970 c3         1 QXQ      -0.059900
      5 C5          32.7940   -29.6450   -42.1490 c3         1 QXQ      -0.094100
      6 C6          35.5140   -29.9500   -43.6160 c          1 QXQ       0.695100
      7 N7          36.2150   -29.2080   -42.7220 ns         1 QXQ      -0.465100
      8 C8          37.0690   -28.1180   -42.9350 ca         1 QXQ       0.075600
      9 C9          37.3620   -27.5700   -44.1850 ca         1 QXQ      -0.150000
     10 C10         38.2400   -26.4950   -44.2940 ca         1 QXQ      -0.061300
     11 C11         38.8190   -25.9500   -43.1530 ca         1 QXQ      -0.133000
     12 C12         38.5170   -26.4860   -41.9100 ca         1 QXQ      -0.105000
     13 C13         37.6540   -27.5610   -41.7960 ca         1 QXQ      -0.186000
     14 C14         38.5990   -25.9730   -45.6650 c3         1 QXQ       0.215100
     15 N15         38.9070   -24.5610   -45.6640 n3         1 QXQ      -0.725600
     16 C16         39.6400   -24.1670   -46.8460 c6         1 QXQ       0.219100
     17 C17         39.9470   -22.6910   -46.8550 ca         1 QXQ      -0.075300
     18 C18         39.2420   -21.8100   -46.0440 ca         1 QXQ      -0.061300
     19 C19         38.1690   -22.3200   -45.1220 c6         1 QXQ      -0.026100
     20 C20         37.7340   -23.7260   -45.4890 c6         1 QXQ       0.165800
     21 C21         35.7170   -32.1590   -42.5080 c          1 QXQ       0.572900
     22 O22         35.5080   -29.7290   -44.8110 o          1 QXQ      -0.573100
     23 O23         36.8760   -32.2050   -42.8320 o          1 QXQ      -0.493100
     24 C7          40.9550   -22.2270   -47.7190 ca         1 QXQ      -0.112000
     25 C15         41.2220   -20.8840   -47.7190 ca         1 QXQ       0.049100
     26 C22         40.5270   -20.0040   -46.9040 ca         1 QXQ       0.052100
     27 C23         39.5370   -20.4340   -46.0630 ca         1 QXQ      -0.116000
     28 O24         42.1240   -20.1910   -48.4610 os         1 QXQ      -0.320900
     29 O25         40.9790   -18.7420   -47.1200 os         1 QXQ      -0.320900
     30 C26         42.1540   -18.8850   -47.9040 c5         1 QXQ       0.325200
     31 H1          34.5370   -32.1810   -44.8660 hc         1 QXQ       0.053200
     32 H2          33.2630   -31.0320   -44.5740 hc         1 QXQ       0.053200
     33 H3          32.4480   -33.3550   -44.4700 hc         1 QXQ       0.039200
     34 H4          33.5050   -33.7320   -43.1230 hc         1 QXQ       0.039200
     35 H5          32.1950   -32.5710   -42.9220 hc         1 QXQ       0.039200
     36 H6          33.3880   -31.5560   -41.3700 hc         1 QXQ       0.053200
     37 H7          34.4870   -30.2770   -40.9910 hc         1 QXQ       0.053200
     38 H8          32.2260   -29.3760   -41.2590 hc         1 QXQ       0.039200
     39 H9          33.2250   -28.7260   -42.5490 hc         1 QXQ       0.039200
     40 H10         32.0870   -30.0300   -42.8840 hc         1 QXQ       0.039200
     41 H11         36.1480   -29.4840   -41.7550 hn         1 QXQ       0.314500
     42 H12         36.9140   -27.9730   -45.0800 ha         1 QXQ       0.163000
     43 H13         39.4930   -25.1090   -43.2410 ha         1 QXQ       0.152000
     44 H14         38.9590   -26.0650   -41.0160 ha         1 QXQ       0.130000
     45 H15         37.4310   -27.9700   -40.8170 ha         1 QXQ       0.124000
     46 H16         37.8000   -26.2280   -46.3800 h1         1 QXQ       0.043700
     47 H17         39.4890   -26.5110   -46.0090 h1         1 QXQ       0.043700
     48 H19         39.0920   -24.4220   -47.7720 h1         1 QXQ       0.042200
     49 H20         40.5760   -24.7320   -46.8830 h1         1 QXQ       0.042200
     50 H21         38.5410   -22.3200   -44.0920 hc         1 QXQ       0.056200
     51 H22         37.3080   -21.6490   -45.1390 hc         1 QXQ       0.056200
     52 H23         37.1160   -24.1380   -44.6900 h1         1 QXQ       0.040200
     53 H24         37.1140   -23.7130   -46.4010 h1         1 QXQ       0.040200
     54 H25         35.2860   -32.9200   -41.8340 h4         1 QXQ      -0.004800
     55 H26         41.5010   -22.9130   -48.3540 ha         1 QXQ       0.150000
     56 H27         38.9890   -19.7440   -45.4320 ha         1 QXQ       0.149000
     57 H28         43.0410   -18.7710   -47.2700 h2         1 QXQ       0.063700
     58 H18         42.1580   -18.1430   -48.7030 h2         1 QXQ       0.063700
@<TRIPOS>BOND
     1     1     2 1   
     2     1     4 1   
     3     1     6 1   
     4     1    21 1   
     5     2     3 1   
     6     2    31 1   
     7     2    32 1   
     8     3    33 1   
     9     3    34 1   
    10     3    35 1   
    11     4     5 1   
    12     4    36 1   
    13     4    37 1   
    14     5    38 1   
    15     5    39 1   
    16     5    40 1   
    17     6     7 1   
    18     6    22 2   
    19     7     8 1   
    20     7    41 1   
    21     8     9 ar  
    22     8    13 ar  
    23     9    10 ar  
    24     9    42 1   
    25    10    11 ar  
    26    10    14 1   
    27    11    12 ar  
    28    11    43 1   
    29    12    13 ar  
    30    12    44 1   
    31    13    45 1   
    32    14    15 1   
    33    14    46 1   
    34    14    47 1   
    35    15    16 1   
    36    15    20 1   
    37    16    17 1   
    38    16    48 1   
    39    16    49 1   
    40    17    18 ar  
    41    17    24 ar  
    42    18    19 1   
    43    18    27 ar  
    44    19    20 1   
    45    19    50 1   
    46    19    51 1   
    47    20    52 1   
    48    20    53 1   
    49    21    23 2   
    50    21    54 1   
    51    24    25 ar  
    52    24    55 1   
    53    25    26 ar  
    54    25    28 1   
    55    26    27 ar  
    56    26    29 1   
    57    27    56 1   
    58    28    30 1   
    59    29    30 1   
    60    30    57 1   
    61    30    58 1   
@<TRIPOS>SUBSTRUCTURE
     1 QXQ         1 TEMP              0 ****  ****    0 ROOT
