@<TRIPOS>MOLECULE
QXQ
   58    61     1     0     0
SMALL
No Charge or Current Charge


@<TRIPOS>ATOM
      1 C1          34.5910   -30.8070   -43.4170 c3         1 QXQ      -0.252000
      2 C2          33.3650   -30.6660   -44.3950 c3         1 QXQ      -0.059900
      3 C3          32.1950   -31.6590   -44.1930 c3         1 QXQ      -0.094100
      4 C4          34.1290   -30.7600   -41.9120 c3         1 QXQ      -0.059900
      5 C5          33.3620   -29.4840   -41.4830 c3         1 QXQ      -0.094100
      6 C6          35.6610   -29.7300   -43.7690 c          1 QXQ       0.628100
      7 N7          36.3530   -29.1790   -42.6950 ns         1 QXQ      -0.139000
      8 C8          37.3770   -28.1970   -42.6160 ca         1 QXQ      -0.017000
      9 C9          38.0910   -27.7210   -43.7390 ca         1 QXQ      -0.132000
     10 C10         39.0990   -26.7460   -43.5890 ca         1 QXQ      -0.061300
     11 C11         39.3970   -26.2480   -42.3080 ca         1 QXQ      -0.115000
     12 C12         38.7000   -26.7230   -41.1860 ca         1 QXQ      -0.087000
     13 C13         37.6980   -27.6950   -41.3420 ca         1 QXQ      -0.168000
     14 C14         39.8650   -26.2300   -44.8060 c3         1 QXQ       0.215100
     15 N15         39.5650   -24.8160   -45.1390 n3         1 QXQ      -0.725600
     16 C16         40.4650   -24.2900   -46.2010 c6         1 QXQ       0.219100
     17 C17         40.1470   -22.8580   -46.6470 ca         1 QXQ      -0.075300
     18 C18         38.8760   -22.2810   -46.3750 ca         1 QXQ      -0.061300
     19 C19         37.8260   -23.0720   -45.5910 c6         1 QXQ      -0.026100
     20 C20         38.1410   -24.5830   -45.4970 c6         1 QXQ       0.165800
     21 C21         35.2790   -32.1660   -43.6420 c          1 QXQ       0.572900
     22 O22         35.8220   -29.3490   -44.9230 o          1 QXQ      -0.573100
     23 O23         36.4600   -32.3040   -43.9400 o          1 QXQ      -0.493100
     24 C7          41.1200   -22.1170   -47.3570 ca         1 QXQ      -0.094000
     25 C15         40.7970   -20.8180   -47.7660 ca         1 QXQ       0.049100
     26 C22         39.5780   -20.2640   -47.4990 ca         1 QXQ       0.052100
     27 C23         38.5870   -20.9660   -46.8040 ca         1 QXQ      -0.098000
     28 O24         41.6090   -19.9780   -48.4570 os         1 QXQ      -0.344100
     29 O25         39.4640   -19.0020   -47.9870 os         1 QXQ      -0.344100
     30 C26         40.7930   -18.7580   -48.5720 c5         1 QXQ       0.371600
     31 H1          33.7150   -30.7840   -45.4290 hc         1 QXQ       0.053200
     32 H2          32.9660   -29.6450   -44.3330 hc         1 QXQ       0.053200
     33 H3          31.4270   -31.4880   -44.9570 hc         1 QXQ       0.039200
     34 H4          32.5270   -32.6990   -44.2860 hc         1 QXQ       0.039200
     35 H5          31.7190   -31.5280   -43.2150 hc         1 QXQ       0.039200
     36 H6          33.4870   -31.6240   -41.6990 hc         1 QXQ       0.053200
     37 H7          34.9930   -30.8910   -41.2480 hc         1 QXQ       0.053200
     38 H8          33.1480   -29.5190   -40.4080 hc         1 QXQ       0.039200
     39 H9          33.9400   -28.5740   -41.6800 hc         1 QXQ       0.039200
     40 H10         32.4040   -29.4020   -42.0080 hc         1 QXQ       0.039200
     41 H11         36.0780   -29.5470   -41.7940 hn         1 QXQ       0.148000
     42 H12         37.8830   -28.1000   -44.7350 ha         1 QXQ       0.145000
     43 H13         40.1690   -25.4920   -42.1850 ha         1 QXQ       0.134000
     44 H14         38.9350   -26.3370   -40.1960 ha         1 QXQ       0.112000
     45 H15         37.1640   -28.0540   -40.4650 ha         1 QXQ       0.106000
     46 H16         39.6490   -26.8730   -45.6700 h1         1 QXQ       0.043700
     47 H17         40.9380   -26.3390   -44.5940 h1         1 QXQ       0.043700
     48 H19         40.4100   -24.9360   -47.0900 h1         1 QXQ       0.042200
     49 H20         41.5080   -24.3240   -45.8520 h1         1 QXQ       0.042200
     50 H21         37.7630   -22.6590   -44.5760 hc         1 QXQ       0.056200
     51 H22         36.8340   -22.9350   -46.0420 hc         1 QXQ       0.056200
     52 H23         37.4650   -25.0280   -44.7510 h1         1 QXQ       0.040200
     53 H24         37.9120   -25.0590   -46.4620 h1         1 QXQ       0.040200
     54 H25         34.6320   -33.0580   -43.4960 h4         1 QXQ      -0.004800
     55 H26         42.0960   -22.5400   -47.5840 ha         1 QXQ       0.132000
     56 H27         37.6240   -20.5050   -46.6010 ha         1 QXQ       0.131000
     57 H28         41.2830   -17.9450   -48.0230 h2         1 QXQ       0.063700
     58 H18         40.6850   -18.4870   -49.6280 h2         1 QXQ       0.063700
@<TRIPOS>BOND
     1     1     2 1   
     2     1     4 1   
     3     1     6 1   
     4     1    21 1   
     5     2     3 1   
     6     2    31 1   
     7     2    32 1   
     8     3    33 1   
     9     3    34 1   
    10     3    35 1   
    11     4     5 1   
    12     4    36 1   
    13     4    37 1   
    14     5    38 1   
    15     5    39 1   
    16     5    40 1   
    17     6     7 1   
    18     6    22 2   
    19     7     8 1   
    20     7    41 1   
    21     8     9 ar  
    22     8    13 ar  
    23     9    10 ar  
    24     9    42 1   
    25    10    11 ar  
    26    10    14 1   
    27    11    12 ar  
    28    11    43 1   
    29    12    13 ar  
    30    12    44 1   
    31    13    45 1   
    32    14    15 1   
    33    14    46 1   
    34    14    47 1   
    35    15    16 1   
    36    15    20 1   
    37    16    17 1   
    38    16    48 1   
    39    16    49 1   
    40    17    18 ar  
    41    17    24 ar  
    42    18    19 1   
    43    18    27 ar  
    44    19    20 1   
    45    19    50 1   
    46    19    51 1   
    47    20    52 1   
    48    20    53 1   
    49    21    23 2   
    50    21    54 1   
    51    24    25 ar  
    52    24    55 1   
    53    25    26 ar  
    54    25    28 1   
    55    26    27 ar  
    56    26    29 1   
    57    27    56 1   
    58    28    30 1   
    59    29    30 1   
    60    30    57 1   
    61    30    58 1   
@<TRIPOS>SUBSTRUCTURE
     1 QXQ         1 TEMP              0 ****  ****    0 ROOT
