@<TRIPOS>MOLECULE
QXR
   41    42     1     0     0
SMALL
No Charge or Current Charge


@<TRIPOS>ATOM
      1 N1         -19.9290     5.0200    26.4460 ns         1 QXR      -0.142000
      2 C4         -18.2050     6.6020    25.7750 ca         1 QXR       0.099100
      3 C5         -16.9150     6.8520    25.2860 ca         1 QXR      -0.168000
      4 C6         -16.0420     5.7730    25.0850 ca         1 QXR       0.316900
      5 C7         -17.6490     4.2480    25.7750 ca         1 QXR       0.323900
      6 C8         -18.5980     5.2710    26.0080 ca         1 QXR      -0.092000
      7 C10        -22.0060     4.0650    27.3360 c3         1 QXR      -0.108100
      8 C13        -22.6000     6.3130    30.3940 ca         1 QXR      -0.100000
      9 C15        -22.1880     4.0460    31.1700 ca         1 QXR       0.126000
     10 Cl         -22.0160     2.8950    32.4890 cl         1 QXR      -0.211000
     11 C14        -22.4640     5.3940    31.4490 ca         1 QXR      -0.095000
     12 C12        -22.4590     5.8820    29.0640 ca         1 QXR      -0.099000
     13 C16        -22.0450     3.6140    29.8410 ca         1 QXR      -0.080000
     14 C11        -22.1780     4.5310    28.7790 ca         1 QXR      -0.065300
     15 C9         -20.5190     3.8960    27.0030 c          1 QXR       0.601100
     16 O1         -19.9100     2.8650    27.2620 o          1 QXR      -0.569100
     17 N          -16.3930     4.4900    25.3270 nb         1 QXR      -0.647000
     18 O          -19.1050     7.6300    25.9760 os         1 QXR      -0.402100
     19 C1         -19.0490     8.5080    27.1280 c3         1 QXR       0.192000
     20 C3         -19.0060     7.6540    28.4210 c3         1 QXR      -0.104767
     21 C2         -20.3510     9.3350    27.0660 c3         1 QXR      -0.104767
     22 C          -17.8130     9.4310    27.0100 c3         1 QXR      -0.104767
     23 H1         -20.5490     5.8140    26.3440 hn         1 QXR       0.166000
     24 H2         -16.5870     7.8590    25.0500 ha         1 QXR       0.130000
     25 H3         -15.0330     5.9380    24.7110 h4         1 QXR       0.022100
     26 H4         -17.8930     3.1980    25.9250 h4         1 QXR       0.055100
     27 H5         -22.4460     4.8160    26.6680 hc         1 QXR       0.068200
     28 H6         -22.5160     3.1050    27.1960 hc         1 QXR       0.068200
     29 H7         -22.8140     7.3590    30.6080 ha         1 QXR       0.119000
     30 H8         -22.5730     5.7250    32.4790 ha         1 QXR       0.131000
     31 H9         -22.5650     6.6040    28.2560 ha         1 QXR       0.113000
     32 H10        -21.8270     2.5690    29.6380 ha         1 QXR       0.131000
     33 H11        -19.0350     8.2990    29.3060 hc         1 QXR       0.047922
     34 H12        -19.8640     6.9750    28.4730 hc         1 QXR       0.047922
     35 H13        -18.0880     7.0560    28.4750 hc         1 QXR       0.047922
     36 H14        -20.4100    10.0320    27.9120 hc         1 QXR       0.047922
     37 H15        -20.3970     9.9200    26.1400 hc         1 QXR       0.047922
     38 H16        -21.2300     8.6820    27.1020 hc         1 QXR       0.047922
     39 H17        -17.8590    10.2300    27.7600 hc         1 QXR       0.047922
     40 H18        -16.8830     8.8770    27.1820 hc         1 QXR       0.047922
     41 H19        -17.7670     9.8990    26.0200 hc         1 QXR       0.047922
@<TRIPOS>BOND
     1     1     6 1   
     2     1    15 1   
     3     1    23 1   
     4     2     3 ar  
     5     2     6 ar  
     6     2    18 1   
     7     3     4 ar  
     8     3    24 1   
     9     4    17 ar  
    10     4    25 1   
    11     5     6 ar  
    12     5    17 ar  
    13     5    26 1   
    14     7    14 1   
    15     7    15 1   
    16     7    27 1   
    17     7    28 1   
    18     8    11 ar  
    19     8    12 ar  
    20     8    29 1   
    21     9    10 1   
    22     9    11 ar  
    23     9    13 ar  
    24    11    30 1   
    25    12    14 ar  
    26    12    31 1   
    27    13    14 ar  
    28    13    32 1   
    29    15    16 2   
    30    18    19 1   
    31    19    20 1   
    32    19    21 1   
    33    19    22 1   
    34    20    33 1   
    35    20    34 1   
    36    20    35 1   
    37    21    36 1   
    38    21    37 1   
    39    21    38 1   
    40    22    39 1   
    41    22    40 1   
    42    22    41 1   
@<TRIPOS>SUBSTRUCTURE
     1 QXR         1 TEMP              0 ****  ****    0 ROOT
