@<TRIPOS>MOLECULE
QXR
   41    42     1     0     0
SMALL
abcg2


@<TRIPOS>ATOM
      1 N1         -19.7480     5.4990    26.9710 ns         1 QXR      -0.142000
      2 C4         -18.0550     6.6640    25.7540 ca         1 QXR       0.099100
      3 C5         -16.7780     6.7080    25.2160 ca         1 QXR      -0.168000
      4 C6         -15.9160     5.6450    25.4520 ca         1 QXR       0.316900
      5 C7         -17.4970     4.5070    26.6590 ca         1 QXR       0.323900
      6 C8         -18.4380     5.5250    26.4870 ca         1 QXR      -0.092000
      7 C10        -21.8070     4.8950    28.0850 c3         1 QXR      -0.108100
      8 C13        -22.4240     4.6980    31.8240 ca         1 QXR      -0.100000
      9 C15        -23.2980     2.7240    30.8050 ca         1 QXR       0.126000
     10 CL         -24.1090     1.1740    30.9390 cl         1 QXR      -0.211000
     11 C14        -23.0660     3.4700    31.9510 ca         1 QXR      -0.095000
     12 C12        -22.0270     5.1610    30.5760 ca         1 QXR      -0.099000
     13 C16        -22.9060     3.1720    29.5510 ca         1 QXR      -0.080000
     14 C11        -22.2640     4.4020    29.4300 ca         1 QXR      -0.065300
     15 C9         -20.3280     4.6150    27.8280 c          1 QXR       0.601100
     16 O1         -19.7410     3.6650    28.3280 o          1 QXR      -0.569100
     17 N          -16.2580     4.5690    26.1600 nb         1 QXR      -0.647000
     18 O          -18.9940     7.6240    25.5370 os         1 QXR      -0.402100
     19 C1         -18.9160     8.9280    26.2450 c3         1 QXR       0.192000
     20 C3         -18.7140     8.6940    27.7380 c3         1 QXR      -0.104767
     21 C2         -20.2740     9.5490    25.9600 c3         1 QXR      -0.104767
     22 C          -17.7920     9.7740    25.6630 c3         1 QXR      -0.104767
     23 H1         -20.3120     6.2730    26.6470 hn         1 QXR       0.166000
     24 H2         -16.4640     7.5480    24.6150 ha         1 QXR       0.130000
     25 H3         -14.9110     5.6630    25.0460 h4         1 QXR       0.022100
     26 H4         -17.7610     3.6250    27.2220 h4         1 QXR       0.055100
     27 H5         -22.0020     5.9640    27.9860 hc         1 QXR       0.068200
     28 H6         -22.3620     4.3940    27.2880 hc         1 QXR       0.068200
     29 H7         -22.2380     5.2940    32.7080 ha         1 QXR       0.119000
     30 H8         -23.3820     3.1020    32.9180 ha         1 QXR       0.131000
     31 H9         -21.5300     6.1190    30.4890 ha         1 QXR       0.113000
     32 H10        -23.1010     2.5690    28.6740 ha         1 QXR       0.131000
     33 H11        -18.6850     9.6580    28.2470 hc         1 QXR       0.047922
     34 H12        -19.5310     8.1080    28.1590 hc         1 QXR       0.047922
     35 H13        -17.7710     8.1820    27.9350 hc         1 QXR       0.047922
     36 H14        -20.3410    10.5260    26.4390 hc         1 QXR       0.047922
     37 H15        -20.4160     9.6780    24.8860 hc         1 QXR       0.047922
     38 H16        -21.0720     8.9140    26.3480 hc         1 QXR       0.047922
     39 H17        -17.8530    10.7820    26.0760 hc         1 QXR       0.047922
     40 H18        -16.8120     9.3710    25.9150 hc         1 QXR       0.047922
     41 H19        -17.8830     9.8390    24.5780 hc         1 QXR       0.047922
@<TRIPOS>BOND
     1     1     6 1   
     2     1    15 1   
     3     1    23 1   
     4     2     3 ar  
     5     2     6 ar  
     6     2    18 1   
     7     3     4 ar  
     8     3    24 1   
     9     4    17 ar  
    10     4    25 1   
    11     5     6 ar  
    12     5    17 ar  
    13     5    26 1   
    14     7    14 1   
    15     7    15 1   
    16     7    27 1   
    17     7    28 1   
    18     8    11 ar  
    19     8    12 ar  
    20     8    29 1   
    21     9    10 1   
    22     9    11 ar  
    23     9    13 ar  
    24    11    30 1   
    25    12    14 ar  
    26    12    31 1   
    27    13    14 ar  
    28    13    32 1   
    29    15    16 2   
    30    18    19 1   
    31    19    20 1   
    32    19    21 1   
    33    19    22 1   
    34    20    33 1   
    35    20    34 1   
    36    20    35 1   
    37    21    36 1   
    38    21    37 1   
    39    21    38 1   
    40    22    39 1   
    41    22    40 1   
    42    22    41 1   
@<TRIPOS>SUBSTRUCTURE
     1 QXR         1 TEMP              0 ****  ****    0 ROOT
