@<TRIPOS>MOLECULE
QXS
   33    35     1     0     0
SMALL
abcg2


@<TRIPOS>ATOM
      1 C16        -45.4330   -31.2830     6.1590 ca         1 QXS       0.188900
      2 C14        -46.9540   -29.6640     6.2360 ca         1 QXS       0.150500
      3 C12        -48.2500   -27.8990     5.7770 cc         1 QXS      -0.176100
      4 C11        -47.4170   -28.0380     4.6980 cd         1 QXS      -0.204200
      5 C10        -46.5810   -29.1660     4.9750 ca         1 QXS      -0.261800
      6 C02        -43.9460   -31.4030     1.9270 c6         1 QXS       0.171300
      7 C03        -45.2000   -31.5750     1.0620 c6         1 QXS      -0.096400
      8 C04        -45.4590   -30.3450     0.1630 c6         1 QXS      -0.070400
      9 C05        -44.1760   -29.5410    -0.0690 c6         1 QXS      -0.078400
     10 C06        -43.5590   -29.0370     1.2530 c6         1 QXS      -0.088400
     11 C07        -43.8540   -29.9620     2.4520 c6         1 QXS       0.213500
     12 C09        -45.5290   -29.8580     4.3300 ca         1 QXS       0.439900
     13 N08        -45.0810   -29.4920     3.1140 nu         1 QXS      -0.925100
     14 N13        -47.9670   -28.8830     6.7040 na         1 QXS      -0.320400
     15 N15        -46.4020   -30.7200     6.8610 nb         1 QXS      -0.228000
     16 N17        -44.9770   -30.9180     4.9500 nb         1 QXS      -0.330000
     17 O01        -43.8490   -32.3970     2.9410 oh         1 QXS      -0.690000
     18 H161       -44.9450   -32.1450     6.6000 h5         1 QXS       0.049100
     19 H121       -49.0280   -27.1790     5.9670 h4         1 QXS       0.219000
     20 H111       -47.4110   -27.4130     3.8200 ha         1 QXS       0.202000
     21 H021       -43.0620   -31.5390     1.2960 h1         1 QXS       0.057700
     22 H032       -46.0520   -31.7460     1.7230 hc         1 QXS       0.051700
     23 H042       -45.8790   -30.6600    -0.7950 hc         1 QXS       0.038700
     24 H041       -46.2060   -29.7000     0.6300 hc         1 QXS       0.038700
     25 H052       -43.4530   -30.1720    -0.5920 hc         1 QXS       0.043700
     26 H051       -44.3740   -28.6910    -0.7240 hc         1 QXS       0.043700
     27 H062       -42.4780   -28.9520     1.1420 hc         1 QXS       0.047700
     28 H061       -43.9250   -28.0340     1.4860 hc         1 QXS       0.047700
     29 H071       -43.0370   -29.9060     3.1760 h1         1 QXS       0.068700
     30 H081       -45.5140   -28.6750     2.7170 hn         1 QXS       0.494000
     31 H131       -48.4320   -29.0070     7.5900 hn         1 QXS       0.364000
     32 H011       -44.2290   -32.0080     3.7650 ho         1 QXS       0.489000
     33 H031       -45.0770   -32.4770     0.4580 hc         1 QXS       0.051700
@<TRIPOS>BOND
     1     1    15 ar  
     2     1    16 ar  
     3     1    18 1   
     4     2     5 ar  
     5     2    14 1   
     6     2    15 ar  
     7     3     4 2   
     8     3    14 1   
     9     3    19 1   
    10     4     5 1   
    11     4    20 1   
    12     5    12 ar  
    13     6     7 1   
    14     6    11 1   
    15     6    17 1   
    16     6    21 1   
    17     7     8 1   
    18     7    22 1   
    19     7    33 1   
    20     8     9 1   
    21     8    23 1   
    22     8    24 1   
    23     9    10 1   
    24     9    25 1   
    25     9    26 1   
    26    10    11 1   
    27    10    27 1   
    28    10    28 1   
    29    11    13 1   
    30    11    29 1   
    31    12    13 1   
    32    12    16 ar  
    33    13    30 1   
    34    14    31 1   
    35    17    32 1   
@<TRIPOS>SUBSTRUCTURE
     1 QXS         1 TEMP              0 ****  ****    0 ROOT
