@<TRIPOS>MOLECULE
QXS
   33    35     1     0     0
SMALL
No Charge or Current Charge


@<TRIPOS>ATOM
      1 C16        -44.7650   -31.2890     6.2200 ca         1 QXS       0.188900
      2 C14        -46.2510   -29.6810     6.8770 ca         1 QXS       0.150500
      3 C12        -47.7660   -27.9310     6.8200 cc         1 QXS      -0.176100
      4 C11        -47.3380   -28.2200     5.5360 cd         1 QXS      -0.204200
      5 C10        -46.3910   -29.3110     5.5650 ca         1 QXS      -0.261800
      6 C02        -45.0830   -31.4480     1.6350 c6         1 QXS       0.171300
      7 C03        -44.8450   -31.6020     0.1060 c6         1 QXS      -0.096400
      8 C04        -43.6350   -30.7530    -0.3520 c6         1 QXS      -0.070400
      9 C05        -43.8690   -29.2350    -0.1050 c6         1 QXS      -0.078400
     10 C06        -44.8960   -28.9430     1.0280 c6         1 QXS      -0.088400
     11 C07        -44.8100   -29.9890     2.1680 c6         1 QXS       0.213500
     12 C09        -45.6740   -29.9780     4.5680 ca         1 QXS       0.439900
     13 N08        -45.7930   -29.6220     3.2290 nu         1 QXS      -0.925100
     14 N13        -47.0720   -28.8570     7.6320 na         1 QXS      -0.320400
     15 N15        -45.4300   -30.6850     7.2360 nb         1 QXS      -0.228000
     16 N17        -44.8450   -30.9860     4.9010 nb         1 QXS      -0.330000
     17 O01        -46.4280   -31.7970     1.9670 oh         1 QXS      -0.690000
     18 H161       -44.0960   -32.1040     6.4940 h5         1 QXS       0.049100
     19 H121       -48.4660   -27.1890     7.2010 h4         1 QXS       0.219000
     20 H111       -47.6780   -27.6940     4.6460 ha         1 QXS       0.202000
     21 H021       -44.3890   -32.1190     2.1640 h1         1 QXS       0.057700
     22 H032       -45.7380   -31.2910    -0.4540 hc         1 QXS       0.051700
     23 H042       -42.7390   -31.0810     0.1940 hc         1 QXS       0.038700
     24 H041       -43.4280   -30.9300    -1.4160 hc         1 QXS       0.038700
     25 H052       -42.9070   -28.7600     0.1350 hc         1 QXS       0.043700
     26 H051       -44.2170   -28.7580    -1.0310 hc         1 QXS       0.043700
     27 H062       -44.7260   -27.9320     1.4230 hc         1 QXS       0.047700
     28 H061       -45.9120   -28.9430     0.6070 hc         1 QXS       0.047700
     29 H071       -43.7850   -29.9470     2.5690 h1         1 QXS       0.068700
     30 H081       -46.3090   -28.7520     3.1000 hn         1 QXS       0.494000
     31 H131       -47.1550   -28.9220     8.6420 hn         1 QXS       0.364000
     32 H011       -46.6220   -31.0740     2.6250 ho         1 QXS       0.489000
     33 H031       -44.6790   -32.6600    -0.1380 hc         1 QXS       0.051700
@<TRIPOS>BOND
     1     1    15 ar  
     2     1    16 ar  
     3     1    18 1   
     4     2     5 ar  
     5     2    14 1   
     6     2    15 ar  
     7     3     4 2   
     8     3    14 1   
     9     3    19 1   
    10     4     5 1   
    11     4    20 1   
    12     5    12 ar  
    13     6     7 1   
    14     6    11 1   
    15     6    17 1   
    16     6    21 1   
    17     7     8 1   
    18     7    22 1   
    19     7    33 1   
    20     8     9 1   
    21     8    23 1   
    22     8    24 1   
    23     9    10 1   
    24     9    25 1   
    25     9    26 1   
    26    10    11 1   
    27    10    27 1   
    28    10    28 1   
    29    11    13 1   
    30    11    29 1   
    31    12    13 1   
    32    12    16 ar  
    33    13    30 1   
    34    14    31 1   
    35    17    32 1   
@<TRIPOS>SUBSTRUCTURE
     1 QXS         1 TEMP              0 ****  ****    0 ROOT
