@<TRIPOS>MOLECULE
QXT
   56    60     1     0     0
SMALL
No Charge or Current Charge


@<TRIPOS>ATOM
      1 C2          42.4560   -30.8690   -40.8910 c3         1 QXT      -0.052900
      2 C3          42.8700   -32.3700   -40.8950 cy         1 QXT      -0.215000
      3 C4          43.8870   -32.6400   -42.0410 c3         1 QXT      -0.052900
      4 C5          45.2630   -31.9580   -41.8730 c3         1 QXT      -0.097100
      5 C6          43.2540   -32.9630   -39.5160 c          1 QXT       0.576000
      6 C9          42.3860   -35.2080   -37.5760 ca         1 QXT      -0.119000
      7 C10         41.9040   -36.2020   -36.7010 ca         1 QXT      -0.071300
      8 C11         40.6800   -36.8350   -36.9790 ca         1 QXT      -0.094000
      9 C12         39.9450   -36.4770   -38.1190 ca         1 QXT      -0.100000
     10 C13         40.4290   -35.4860   -38.9890 ca         1 QXT      -0.117000
     11 C14         42.7040   -36.5980   -35.4610 c3         1 QXT       0.214100
     12 C21         45.4270   -41.6990   -33.1230 ca         1 QXT       0.050100
     13 C22         45.7730   -42.2700   -34.3140 ca         1 QXT       0.054100
     14 O25         46.3720   -43.4780   -34.1550 os         1 QXT      -0.344100
     15 C1          41.3650   -30.5020   -39.8600 c3         1 QXT      -0.097100
     16 N7          42.1510   -33.8360   -39.6090 nj         1 QXT      -0.225000
     17 C8          41.6960   -33.3800   -40.8630 c          1 QXT       0.576000
     18 C7          41.6570   -34.8400   -38.7270 ca         1 QXT      -0.035000
     19 N15         43.2610   -37.9700   -35.5320 n3         1 QXT      -0.716600
     20 C16         44.2270   -38.1590   -36.6460 c6         1 QXT       0.164800
     21 C17         44.5850   -39.6520   -36.8290 c6         1 QXT      -0.026100
     22 C18         44.8960   -40.3680   -35.5130 ca         1 QXT      -0.061300
     23 C19         44.5290   -39.7740   -34.2740 ca         1 QXT      -0.076300
     24 C20         43.8620   -38.3930   -34.2390 c6         1 QXT       0.217100
     25 O21         44.1270   -32.7620   -38.6860 o          1 QXT      -0.461500
     26 O22         40.7710   -33.6720   -41.6050 o          1 QXT      -0.461500
     27 C15         44.8030   -40.4470   -33.0610 ca         1 QXT      -0.095000
     28 C23         45.5230   -41.6340   -35.5350 ca         1 QXT      -0.097000
     29 O24         45.7640   -42.4710   -32.0590 os         1 QXT      -0.344100
     30 C26         46.3320   -43.6710   -32.6960 c5         1 QXT       0.372600
     31 H1          43.3290   -30.2380   -40.6850 hc         1 QXT       0.057200
     32 H2          42.0950   -30.5800   -41.8870 hc         1 QXT       0.057200
     33 H3          43.4570   -32.3350   -43.0040 hc         1 QXT       0.057200
     34 H4          44.0600   -33.7210   -42.1230 hc         1 QXT       0.057200
     35 H5          45.9360   -32.2650   -42.6820 hc         1 QXT       0.042700
     36 H6          45.1770   -30.8660   -41.9100 hc         1 QXT       0.042700
     37 H7          45.7310   -32.2390   -40.9220 hc         1 QXT       0.042700
     38 H8          43.3370   -34.7350   -37.3510 ha         1 QXT       0.126000
     39 H9          40.3040   -37.6080   -36.3120 ha         1 QXT       0.130000
     40 H10         38.9980   -36.9690   -38.3300 ha         1 QXT       0.118000
     41 H11         39.8360   -35.2280   -39.8610 ha         1 QXT       0.129000
     42 H12         43.5130   -35.8710   -35.3050 h1         1 QXT       0.041700
     43 H13         42.0350   -36.5150   -34.5930 h1         1 QXT       0.041700
     44 H14         41.1440   -29.4290   -39.9120 hc         1 QXT       0.042700
     45 H15         40.4330   -31.0450   -40.0560 hc         1 QXT       0.042700
     46 H16         41.6930   -30.7280   -38.8380 hc         1 QXT       0.042700
     47 H18         45.1470   -37.5900   -36.4470 h1         1 QXT       0.039200
     48 H19         43.8170   -37.7850   -37.5960 h1         1 QXT       0.039200
     49 H20         43.7410   -40.1610   -37.3150 hc         1 QXT       0.057200
     50 H21         45.4350   -39.7390   -37.5190 hc         1 QXT       0.057200
     51 H22         44.6240   -37.6640   -33.9240 h1         1 QXT       0.041700
     52 H23         43.0900   -38.3990   -33.4560 h1         1 QXT       0.041700
     53 H24         44.5400   -40.0090   -32.1020 ha         1 QXT       0.131000
     54 H25         45.8060   -42.1070   -36.4720 ha         1 QXT       0.132000
     55 H26         45.6970   -44.5350   -32.4660 h2         1 QXT       0.063200
     56 H27         47.3470   -43.8410   -32.3200 h2         1 QXT       0.063200
@<TRIPOS>BOND
     1     1     2 1   
     2     1    15 1   
     3     1    31 1   
     4     1    32 1   
     5     2     3 1   
     6     2     5 1   
     7     2    17 1   
     8     3     4 1   
     9     3    33 1   
    10     3    34 1   
    11     4    35 1   
    12     4    36 1   
    13     4    37 1   
    14     5    16 1   
    15     5    25 2   
    16     6     7 ar  
    17     6    18 ar  
    18     6    38 1   
    19     7     8 ar  
    20     7    11 1   
    21     8     9 ar  
    22     8    39 1   
    23     9    10 ar  
    24     9    40 1   
    25    10    18 ar  
    26    10    41 1   
    27    11    19 1   
    28    11    42 1   
    29    11    43 1   
    30    12    13 ar  
    31    12    27 ar  
    32    12    29 1   
    33    13    14 1   
    34    13    28 ar  
    35    14    30 1   
    36    15    44 1   
    37    15    45 1   
    38    15    46 1   
    39    16    17 1   
    40    16    18 1   
    41    17    26 2   
    42    19    20 1   
    43    19    24 1   
    44    20    21 1   
    45    20    47 1   
    46    20    48 1   
    47    21    22 1   
    48    21    49 1   
    49    21    50 1   
    50    22    23 ar  
    51    22    28 ar  
    52    23    24 1   
    53    23    27 ar  
    54    24    51 1   
    55    24    52 1   
    56    27    53 1   
    57    28    54 1   
    58    29    30 1   
    59    30    55 1   
    60    30    56 1   
@<TRIPOS>SUBSTRUCTURE
     1 QXT         1 TEMP              0 ****  ****    0 ROOT
