@<TRIPOS>MOLECULE
QXT
   56    60     1     0     0
SMALL
abcg2


@<TRIPOS>ATOM
      1 C2          42.0070   -30.9790   -41.1920 c3         1 QXT      -0.052900
      2 C3          42.7960   -32.2520   -40.9050 cy         1 QXT      -0.215000
      3 C4          44.0520   -32.4100   -41.7680 c3         1 QXT      -0.052900
      4 C5          45.0830   -31.3050   -41.5840 c3         1 QXT      -0.097100
      5 C6          43.0160   -32.5670   -39.4230 c          1 QXT       0.576000
      6 C9          42.8140   -35.1150   -37.6130 ca         1 QXT      -0.119000
      7 C10         42.4920   -36.1180   -36.7110 ca         1 QXT      -0.071300
      8 C11         41.2550   -36.7520   -36.8140 ca         1 QXT      -0.094000
      9 C12         40.3500   -36.3710   -37.7910 ca         1 QXT      -0.100000
     10 C13         40.6610   -35.3550   -38.6840 ca         1 QXT      -0.117000
     11 C14         43.4560   -36.5170   -35.6240 c3         1 QXT       0.214100
     12 C21         45.1220   -41.7890   -33.0930 ca         1 QXT       0.050100
     13 C22         45.2080   -42.5190   -34.2680 ca         1 QXT       0.054100
     14 O25         45.4940   -43.8130   -33.9710 os         1 QXT      -0.344100
     15 C1          40.7010   -30.8450   -40.4200 c3         1 QXT      -0.097100
     16 N7          42.2400   -33.7250   -39.5080 nj         1 QXT      -0.225000
     17 C8          41.9620   -33.5350   -40.8610 c          1 QXT       0.576000
     18 C7          41.8990   -34.7340   -38.5920 ca         1 QXT      -0.035000
     19 N15         43.6970   -37.9440   -35.6110 n3         1 QXT      -0.716600
     20 C16         44.5050   -38.3830   -36.7330 c6         1 QXT       0.164800
     21 C17         44.4460   -39.8950   -36.8460 c6         1 QXT      -0.026100
     22 C18         44.6890   -40.5680   -35.5220 ca         1 QXT      -0.061300
     23 C19         44.5970   -39.8400   -34.3420 ca         1 QXT      -0.076300
     24 C20         44.2910   -38.3660   -34.3610 c6         1 QXT       0.217100
     25 O21         43.5950   -32.0780   -38.4980 o          1 QXT      -0.461500
     26 O22         41.3250   -34.1900   -41.6320 o          1 QXT      -0.461500
     27 C15         44.8180   -40.4550   -33.0980 ca         1 QXT      -0.095000
     28 C23         44.9990   -41.9400   -35.4900 ca         1 QXT      -0.097000
     29 O24         45.3510   -42.6080   -32.0350 os         1 QXT      -0.344100
     30 C26         45.8020   -43.8370   -32.5850 c5         1 QXT       0.372600
     31 H1          42.6470   -30.1220   -40.9730 hc         1 QXT       0.057200
     32 H2          41.8100   -30.9470   -42.2660 hc         1 QXT       0.057200
     33 H3          43.7310   -32.4500   -42.8120 hc         1 QXT       0.057200
     34 H4          44.5160   -33.3770   -41.5520 hc         1 QXT       0.057200
     35 H5          45.9590   -31.5130   -42.1980 hc         1 QXT       0.042700
     36 H6          44.6990   -30.3310   -41.8840 hc         1 QXT       0.042700
     37 H7          45.4180   -31.2320   -40.5490 hc         1 QXT       0.042700
     38 H8          43.7860   -34.6400   -37.5600 ha         1 QXT       0.126000
     39 H9          41.0040   -37.5460   -36.1230 ha         1 QXT       0.130000
     40 H10         39.3890   -36.8620   -37.8580 ha         1 QXT       0.118000
     41 H11         39.9430   -35.0530   -39.4340 ha         1 QXT       0.129000
     42 H12         44.3870   -35.9350   -35.7170 h1         1 QXT       0.041700
     43 H13         43.0210   -36.2400   -34.6590 h1         1 QXT       0.041700
     44 H14         40.2140   -29.9040   -40.6770 hc         1 QXT       0.042700
     45 H15         39.9980   -31.6450   -40.6560 hc         1 QXT       0.042700
     46 H16         40.8580   -30.8410   -39.3410 hc         1 QXT       0.042700
     47 H18         45.5500   -38.0460   -36.6280 h1         1 QXT       0.039200
     48 H19         44.1210   -37.9360   -37.6510 h1         1 QXT       0.039200
     49 H20         43.4640   -40.1880   -37.2310 hc         1 QXT       0.057200
     50 H21         45.1780   -40.2370   -37.5810 hc         1 QXT       0.057200
     51 H22         45.2220   -37.8100   -34.1460 h1         1 QXT       0.041700
     52 H23         43.6000   -38.1290   -33.5470 h1         1 QXT       0.041700
     53 H24         44.7420   -39.8880   -32.1780 ha         1 QXT       0.131000
     54 H25         45.0690   -42.5120   -36.4070 ha         1 QXT       0.132000
     55 H26         45.2840   -44.6690   -32.1060 h2         1 QXT       0.063200
     56 H27         46.8850   -43.9310   -32.4460 h2         1 QXT       0.063200
@<TRIPOS>BOND
     1     1     2 1   
     2     1    15 1   
     3     1    31 1   
     4     1    32 1   
     5     2     3 1   
     6     2     5 1   
     7     2    17 1   
     8     3     4 1   
     9     3    33 1   
    10     3    34 1   
    11     4    35 1   
    12     4    36 1   
    13     4    37 1   
    14     5    16 1   
    15     5    25 2   
    16     6     7 ar  
    17     6    18 ar  
    18     6    38 1   
    19     7     8 ar  
    20     7    11 1   
    21     8     9 ar  
    22     8    39 1   
    23     9    10 ar  
    24     9    40 1   
    25    10    18 ar  
    26    10    41 1   
    27    11    19 1   
    28    11    42 1   
    29    11    43 1   
    30    12    13 ar  
    31    12    27 ar  
    32    12    29 1   
    33    13    14 1   
    34    13    28 ar  
    35    14    30 1   
    36    15    44 1   
    37    15    45 1   
    38    15    46 1   
    39    16    17 1   
    40    16    18 1   
    41    17    26 2   
    42    19    20 1   
    43    19    24 1   
    44    20    21 1   
    45    20    47 1   
    46    20    48 1   
    47    21    22 1   
    48    21    49 1   
    49    21    50 1   
    50    22    23 ar  
    51    22    28 ar  
    52    23    24 1   
    53    23    27 ar  
    54    24    51 1   
    55    24    52 1   
    56    27    53 1   
    57    28    54 1   
    58    29    30 1   
    59    30    55 1   
    60    30    56 1   
@<TRIPOS>SUBSTRUCTURE
     1 QXT         1 TEMP              0 ****  ****    0 ROOT
