@<TRIPOS>MOLECULE
QXU
   22    23     1     0     0
SMALL
No Charge or Current Charge


@<TRIPOS>ATOM
      1 C10         25.7800   -88.6700    59.9230 ca         1 QXU      -0.111000
      2 C03         22.2510   -87.9060    57.1860 cx         1 QXU      -0.028700
      3 C05         23.5640   -87.1740    57.1740 cx         1 QXU       0.158600
      4 C06         24.5740   -87.3130    58.2850 ca         1 QXU      -0.091300
      5 C07         25.2720   -86.1750    58.7380 ca         1 QXU      -0.087500
      6 C08         26.2150   -86.2830    59.7760 ca         1 QXU      -0.111000
      7 C09         26.4690   -87.5310    60.3690 ca         1 QXU      -0.098000
      8 C11         24.8370   -88.5640    58.8860 ca         1 QXU      -0.087500
      9 C12         20.2660   -88.0500    55.5310 c3         1 QXU      -0.191100
     10 O01         20.7280   -86.0840    56.8390 o          1 QXU      -0.508100
     11 O04         23.3350   -88.3140    56.3100 op         1 QXU      -0.421000
     12 H1          25.9780   -89.6380    60.3800 ha         1 QXU       0.116000
     13 H2          22.0310   -88.5820    58.0110 h1         1 QXU       0.115700
     14 H3          23.6110   -86.2170    56.6510 h1         1 QXU       0.091700
     15 H4          25.0830   -85.2030    58.2880 ha         1 QXU       0.118500
     16 H5          26.7480   -85.3990    60.1190 ha         1 QXU       0.116000
     17 H6          27.1990   -87.6140    61.1720 ha         1 QXU       0.115000
     18 H7          24.3150   -89.4570    58.5490 ha         1 QXU       0.118500
     19 H8          19.3950   -87.5150    55.1380 hc         1 QXU       0.068367
     20 H9          20.9440   -88.3640    54.7300 hc         1 QXU       0.068367
     21 H10         19.9880   -89.0080    55.9860 hc         1 QXU       0.068367
     22 C02         21.0550   -87.2290    56.5490 c          1 QXU       0.581100
@<TRIPOS>BOND
     1     1     7 ar  
     2     1     8 ar  
     3     1    12 1   
     4     2     3 1   
     5     2    11 1   
     6     2    13 1   
     7     2    22 1   
     8     3     4 1   
     9     3    11 1   
    10     3    14 1   
    11     4     5 ar  
    12     4     8 ar  
    13     5     6 ar  
    14     5    15 1   
    15     6     7 ar  
    16     6    16 1   
    17     7    17 1   
    18     8    18 1   
    19     9    19 1   
    20     9    20 1   
    21     9    21 1   
    22     9    22 1   
    23    10    22 2   
@<TRIPOS>SUBSTRUCTURE
     1 QXU         1 TEMP              0 ****  ****    0 ROOT
