@<TRIPOS>MOLECULE
QXU
   22    23     1     0     0
SMALL
abcg2


@<TRIPOS>ATOM
      1 C10         25.7320   -88.5300    60.0510 ca         1 QXU      -0.111000
      2 C03         22.0510   -88.1050    57.5360 cx         1 QXU      -0.028700
      3 C05         23.3980   -87.5580    57.2350 cx         1 QXU       0.158600
      4 C06         24.4680   -87.5150    58.2630 ca         1 QXU      -0.091300
      5 C07         25.2160   -86.3470    58.4110 ca         1 QXU      -0.087500
      6 C08         26.2100   -86.2670    59.3800 ca         1 QXU      -0.111000
      7 C09         26.4710   -87.3580    60.2020 ca         1 QXU      -0.098000
      8 C11         24.7340   -88.6090    59.0890 ca         1 QXU      -0.087500
      9 C12         20.7810   -87.5360    55.3740 c3         1 QXU      -0.191100
     10 O01         19.9450   -87.0920    57.5730 o          1 QXU      -0.508100
     11 O04         22.9850   -88.8340    56.7370 op         1 QXU      -0.421000
     12 H1          25.9360   -89.3840    60.6850 ha         1 QXU       0.116000
     13 H2          21.8800   -88.4970    58.5340 h1         1 QXU       0.115700
     14 H3          23.4600   -86.7860    56.4750 h1         1 QXU       0.091700
     15 H4          25.0180   -85.5010    57.7630 ha         1 QXU       0.118500
     16 H5          26.7840   -85.3550    59.4880 ha         1 QXU       0.116000
     17 H6          27.2470   -87.2990    60.9540 ha         1 QXU       0.115000
     18 H7          24.1660   -89.5220    58.9690 ha         1 QXU       0.118500
     19 H8          19.9120   -86.9760    55.0340 hc         1 QXU       0.068367
     20 H9          21.6930   -87.1180    54.9440 hc         1 QXU       0.068367
     21 H10         20.7150   -88.5710    55.0250 hc         1 QXU       0.068367
     22 C02         20.8370   -87.5330    56.8710 c          1 QXU       0.581100
@<TRIPOS>BOND
     1     1     7 ar  
     2     1     8 ar  
     3     1    12 1   
     4     2     3 1   
     5     2    11 1   
     6     2    13 1   
     7     2    22 1   
     8     3     4 1   
     9     3    11 1   
    10     3    14 1   
    11     4     5 ar  
    12     4     8 ar  
    13     5     6 ar  
    14     5    15 1   
    15     6     7 ar  
    16     6    16 1   
    17     7    17 1   
    18     8    18 1   
    19     9    19 1   
    20     9    20 1   
    21     9    21 1   
    22     9    22 1   
    23    10    22 2   
@<TRIPOS>SUBSTRUCTURE
     1 QXU         1 TEMP              0 ****  ****    0 ROOT
