@<TRIPOS>MOLECULE
QXV
   21    20     1     0     0
SMALL
No Charge or Current Charge


@<TRIPOS>ATOM
      1 N           -1.2710     1.9340     0.1650 n8         1 QXV      -0.876800
      2 CA          -1.2880     0.4590     0.4520 c3         1 QXV       0.086500
      3 C           -2.6170    -0.2870     0.0550 c          1 QXV       0.628100
      4 O           -3.5010     0.2170    -0.6220 o          1 QXV      -0.609100
      5 CB          -0.0420    -0.2280    -0.1720 c3         1 QXV      -0.058400
      6 CG           1.3030     0.3100     0.3620 c3         1 QXV       0.024700
      7 SD           2.7140    -0.6270    -0.3800 ss         1 QXV      -0.355200
      8 CE           4.1300     0.2350     0.4360 c3         1 QXV      -0.002000
      9 NXT         -2.7710    -1.5520     0.5110 nt         1 QXV      -0.670000
     10 H1          -1.4690     2.0800    -0.8310 hn         1 QXV       0.355300
     11 H2          -2.0710     2.3760     0.6340 hn         1 QXV       0.355300
     12 H4          -1.2060     0.3460     1.5420 h1         1 QXV       0.061700
     13 H5          -0.0810    -1.3050     0.0340 hc         1 QXV       0.059700
     14 H6          -0.0710    -0.1170    -1.2630 hc         1 QXV       0.059700
     15 H7           1.4110     1.3740     0.1100 h1         1 QXV       0.065700
     16 H8           1.3390     0.2060     1.4540 h1         1 QXV       0.065700
     17 H9           4.1180     1.3000     0.1740 h1         1 QXV       0.059367
     18 H10          4.0520     0.1300     1.5260 h1         1 QXV       0.059367
     19 H11          5.0760    -0.2080     0.0990 h1         1 QXV       0.059367
     20 H12         -2.0550    -1.9790     1.0810 hn         1 QXV       0.314500
     21 H13         -3.6130    -2.0590     0.2800 hn         1 QXV       0.314500
@<TRIPOS>BOND
     1     1     2 1   
     2     1    10 1   
     3     1    11 1   
     4     2     3 1   
     5     2     5 1   
     6     2    12 1   
     7     3     4 2   
     8     3     9 1   
     9     5     6 1   
    10     5    13 1   
    11     5    14 1   
    12     6     7 1   
    13     6    15 1   
    14     6    16 1   
    15     7     8 1   
    16     8    17 1   
    17     8    18 1   
    18     8    19 1   
    19     9    20 1   
    20     9    21 1   
@<TRIPOS>SUBSTRUCTURE
     1 QXV         1 TEMP              0 ****  ****    0 ROOT
