@<TRIPOS>MOLECULE
QXV
   21    20     1     0     0
SMALL
bcc


@<TRIPOS>ATOM
      1 N           -1.2340     1.8230     0.2500 n8         1 QXV      -0.876800
      2 CA          -1.2430     0.3950     0.4760 c3         1 QXV       0.086500
      3 C           -2.5000    -0.3010    -0.0580 c          1 QXV       0.628100
      4 O           -3.0930     0.1180    -1.0420 o          1 QXV      -0.609100
      5 CB          -0.0220    -0.2620    -0.1820 c3         1 QXV      -0.058400
      6 CG           1.2840     0.2830     0.3720 c3         1 QXV       0.024700
      7 SD           2.6830    -0.5570    -0.4250 ss         1 QXV      -0.355200
      8 CE           4.0550     0.2970     0.3830 c3         1 QXV      -0.002000
      9 NXT         -2.8700    -1.4010     0.6100 nt         1 QXV      -0.670000
     10 H1          -1.4220     2.0080    -0.7290 hn         1 QXV       0.355300
     11 H2          -1.9890     2.2580     0.7640 hn         1 QXV       0.355300
     12 H4          -1.1780     0.2230     1.5550 h1         1 QXV       0.061700
     13 H5          -0.0660    -1.3420    -0.0230 hc         1 QXV       0.059700
     14 H6          -0.0660    -0.1010    -1.2640 hc         1 QXV       0.059700
     15 H7           1.3590     1.3560     0.1930 h1         1 QXV       0.065700
     16 H8           1.3370     0.1180     1.4510 h1         1 QXV       0.065700
     17 H9           4.0290     1.3660     0.1750 h1         1 QXV       0.059367
     18 H10          4.0360     0.1390     1.4600 h1         1 QXV       0.059367
     19 H11          4.9810    -0.1140    -0.0140 h1         1 QXV       0.059367
     20 H12         -2.3620    -1.7280     1.4140 hn         1 QXV       0.314500
     21 H13         -3.6340    -1.9700     0.2830 hn         1 QXV       0.314500
@<TRIPOS>BOND
     1     1     2 1   
     2     1    10 1   
     3     1    11 1   
     4     2     3 1   
     5     2     5 1   
     6     2    12 1   
     7     3     4 2   
     8     3     9 1   
     9     5     6 1   
    10     5    13 1   
    11     5    14 1   
    12     6     7 1   
    13     6    15 1   
    14     6    16 1   
    15     7     8 1   
    16     8    17 1   
    17     8    18 1   
    18     8    19 1   
    19     9    20 1   
    20     9    21 1   
@<TRIPOS>SUBSTRUCTURE
     1 QXV         1 TEMP              0 ****  ****    0 ROOT
