@<TRIPOS>MOLECULE
QXW
   13    14     1     0     0
SMALL
No Charge or Current Charge


@<TRIPOS>ATOM
      1 C10          3.9410   -44.5630    23.5830 ca         1 QXW      -0.038000
      2 C11          2.9420   -45.5260    23.7750 ca         1 QXW      -0.129200
      3 C04          2.6170   -46.0080    25.0100 ca         1 QXW       0.416000
      4 C06          4.2040   -44.6660    26.0010 ca         1 QXW       0.410200
      5 C08          4.5940   -44.1200    24.7480 ca         1 QXW      -0.043900
      6 N01          2.1350   -46.1490    22.8660 na         1 QXW      -0.053400
      7 N02          1.3070   -47.0230    23.5540 nc         1 QXW      -0.139400
      8 N03          1.5970   -46.9390    24.8540 nd         1 QXW      -0.267000
      9 N05          3.2280   -45.6000    26.1390 nb         1 QXW      -0.558000
     10 Br2          5.0470   -44.1140    27.6320 br         1 QXW      -0.106200
     11 Br1          5.9820   -42.8020    24.6080 br         1 QXW      -0.032100
     12 H1           4.1970   -44.1810    22.5980 ha         1 QXW       0.147000
     13 H2           2.0990   -46.0370    21.8560 hn         1 QXW       0.393000
@<TRIPOS>BOND
     1     1     2 ar  
     2     1     5 ar  
     3     1    12 1   
     4     2     3 ar  
     5     2     6 1   
     6     3     8 1   
     7     3     9 ar  
     8     4     5 ar  
     9     4     9 ar  
    10     4    10 1   
    11     5    11 1   
    12     6     7 1   
    13     6    13 1   
    14     7     8 2   
@<TRIPOS>SUBSTRUCTURE
     1 QXW         1 TEMP              0 ****  ****    0 ROOT
