@<TRIPOS>MOLECULE
QXW
   13    14     1     0     0
SMALL
abcg2


@<TRIPOS>ATOM
      1 C10          3.9670   -44.5380    23.5720 ca         1 QXW      -0.038000
      2 C11          2.9670   -45.4940    23.7210 ca         1 QXW      -0.129200
      3 C04          2.6430   -45.9820    24.9840 ca         1 QXW       0.416000
      4 C06          4.1680   -44.6980    25.9830 ca         1 QXW       0.410200
      5 C08          4.5770   -44.1370    24.7400 ca         1 QXW      -0.043900
      6 N01          2.1280   -46.1610    22.9080 na         1 QXW      -0.053400
      7 N02          1.3600   -46.9820    23.6090 nc         1 QXW      -0.139400
      8 N03          1.6450   -46.8960    24.8520 nd         1 QXW      -0.267000
      9 N05          3.2330   -45.5910    26.1090 nb         1 QXW      -0.558000
     10 BR2          4.9970   -44.1490    27.5820 br         1 QXW      -0.106200
     11 BR1          5.9340   -42.8550    24.6530 br         1 QXW      -0.032100
     12 H1           4.2470   -44.1360    22.6080 ha         1 QXW       0.147000
     13 H2           2.0240   -46.1090    21.9040 hn         1 QXW       0.393000
@<TRIPOS>BOND
     1     1     2 ar  
     2     1     5 ar  
     3     1    12 1   
     4     2     3 ar  
     5     2     6 1   
     6     3     8 1   
     7     3     9 ar  
     8     4     5 ar  
     9     4     9 ar  
    10     4    10 1   
    11     5    11 1   
    12     6     7 1   
    13     6    13 1   
    14     7     8 2   
@<TRIPOS>SUBSTRUCTURE
     1 QXW         1 TEMP              0 ****  ****    0 ROOT
