@<TRIPOS>MOLECULE
QXX
   31    32     1     0     0
SMALL
abcg2


@<TRIPOS>ATOM
      1 N1         -19.6790     5.1680    26.6420 ns         1 QXX      -0.173000
      2 C4         -17.5030     4.1220    26.3220 ca         1 QXX       0.335900
      3 C5         -18.3600     5.2160    26.1640 ca         1 QXX      -0.029000
      4 C6         -20.0600     4.6820    27.8660 c          1 QXX       0.604100
      5 C7         -21.5600     4.7970    28.1130 c3         1 QXX      -0.108100
      6 C8         -21.9820     4.2730    29.4540 ca         1 QXX      -0.066300
      7 C10        -22.4380     4.6240    31.8020 ca         1 QXX      -0.099000
      8 C13        -22.2660     2.9170    29.6140 ca         1 QXX      -0.085000
      9 C12        -22.6280     2.4380    30.8640 ca         1 QXX       0.126000
     10 C11        -22.7180     3.2730    31.9690 ca         1 QXX      -0.093000
     11 C9         -22.0730     5.1210    30.5560 ca         1 QXX      -0.091000
     12 O          -19.2730     4.2130    28.6700 o          1 QXX      -0.550100
     13 C1         -17.8600     6.3390    25.4960 ca         1 QXX      -0.195300
     14 C          -18.7100     7.5670    25.3090 c3         1 QXX       0.347300
     15 F2         -18.0680     8.5440    24.6510 f          1 QXX      -0.110333
     16 F1         -19.1130     8.0840    26.4910 f          1 QXX      -0.110333
     17 F          -19.8370     7.2930    24.6050 f          1 QXX      -0.110333
     18 N          -16.2490     4.1040    25.8800 nb         1 QXX      -0.624000
     19 C3         -15.7860     5.1810    25.2410 ca         1 QXX       0.316900
     20 C2         -16.5560     6.3130    25.0210 ca         1 QXX      -0.101000
     21 H1         -20.3920     5.6210    26.0880 hn         1 QXX       0.164000
     22 H2         -17.8650     3.2350    26.8220 h4         1 QXX       0.047100
     23 H3         -21.8340     5.8500    28.0080 hc         1 QXX       0.071200
     24 H4         -22.0690     4.2600    27.3080 hc         1 QXX       0.071200
     25 H5         -22.5060     5.2910    32.6530 ha         1 QXX       0.121000
     26 H6         -22.2030     2.2430    28.7710 ha         1 QXX       0.128000
     27 H7         -23.0040     2.8770    32.9340 ha         1 QXX       0.132000
     28 H8         -21.8580     6.1760    30.4360 ha         1 QXX       0.117000
     29 H9         -14.7640     5.1380    24.8840 h4         1 QXX       0.032100
     30 H10        -16.1410     7.1620    24.4980 ha         1 QXX       0.142000
     31 CL         -22.9830     0.7310    31.0500 cl         1 QXX      -0.211000
@<TRIPOS>BOND
     1     1     3 1   
     2     1     4 1   
     3     1    21 1   
     4     2     3 ar  
     5     2    18 ar  
     6     2    22 1   
     7     3    13 ar  
     8     4     5 1   
     9     4    12 2   
    10     5     6 1   
    11     5    23 1   
    12     5    24 1   
    13     6     8 ar  
    14     6    11 ar  
    15     7    10 ar  
    16     7    11 ar  
    17     7    25 1   
    18     8     9 ar  
    19     8    26 1   
    20     9    10 ar  
    21     9    31 1   
    22    10    27 1   
    23    11    28 1   
    24    13    14 1   
    25    13    20 ar  
    26    14    15 1   
    27    14    16 1   
    28    14    17 1   
    29    18    19 ar  
    30    19    20 ar  
    31    19    29 1   
    32    20    30 1   
@<TRIPOS>SUBSTRUCTURE
     1 QXX         1 TEMP              0 ****  ****    0 ROOT
