@<TRIPOS>MOLECULE
QXX
   31    32     1     0     0
SMALL
No Charge or Current Charge


@<TRIPOS>ATOM
      1 N1         -19.7230     4.7600    26.6880 ns         1 QXX      -0.173000
      2 C4         -17.4670     3.9980    25.9530 ca         1 QXX       0.335900
      3 C5         -18.3900     5.0320    26.2630 ca         1 QXX      -0.029000
      4 C6         -20.3270     3.5990    27.1490 c          1 QXX       0.604100
      5 C7         -21.8130     3.7530    27.4910 c3         1 QXX      -0.108100
      6 C8         -21.9960     3.9740    28.9890 ca         1 QXX      -0.066300
      7 C10        -22.1430     5.4820    30.9040 ca         1 QXX      -0.099000
      8 C13        -22.1680     2.8750    29.8540 ca         1 QXX      -0.085000
      9 C12        -22.3280     3.0810    31.2350 ca         1 QXX       0.126000
     10 C11        -22.3160     4.3820    31.7610 ca         1 QXX      -0.093000
     11 C9         -21.9840     5.2790    29.5220 ca         1 QXX      -0.091000
     12 O          -19.7330     2.5400    27.3140 o          1 QXX      -0.550100
     13 C1         -17.9670     6.3810    26.1240 ca         1 QXX      -0.195300
     14 C          -18.9010     7.5640    26.4370 c3         1 QXX       0.347300
     15 F2         -18.3110     8.7670    26.2540 f          1 QXX      -0.110333
     16 F1         -19.3290     7.5360    27.7200 f          1 QXX      -0.110333
     17 F          -20.0020     7.5510    25.6520 f          1 QXX      -0.110333
     18 N          -16.1980     4.2240    25.5390 nb         1 QXX      -0.624000
     19 C3         -15.7980     5.5080    25.4170 ca         1 QXX       0.316900
     20 C2         -16.6370     6.6000    25.6930 ca         1 QXX      -0.101000
     21 H1         -20.3410     5.5600    26.6480 hn         1 QXX       0.164000
     22 H2         -17.7440     2.9480    26.0150 h4         1 QXX       0.047100
     23 H3         -22.2280     4.6140    26.9520 hc         1 QXX       0.071200
     24 H4         -22.3420     2.8430    27.1840 hc         1 QXX       0.071200
     25 H5         -22.1330     6.4920    31.3100 ha         1 QXX       0.121000
     26 H6         -22.1750     1.8620    29.4600 ha         1 QXX       0.128000
     27 H7         -22.4400     4.5370    32.8300 ha         1 QXX       0.132000
     28 H8         -21.8490     6.1380    28.8680 ha         1 QXX       0.117000
     29 H9         -14.7730     5.6680    25.0840 h4         1 QXX       0.032100
     30 H10        -16.2390     7.6030    25.5670 ha         1 QXX       0.142000
     31 Cl         -22.5410     1.7020    32.3070 cl         1 QXX      -0.211000
@<TRIPOS>BOND
     1     1     3 1   
     2     1     4 1   
     3     1    21 1   
     4     2     3 ar  
     5     2    18 ar  
     6     2    22 1   
     7     3    13 ar  
     8     4     5 1   
     9     4    12 2   
    10     5     6 1   
    11     5    23 1   
    12     5    24 1   
    13     6     8 ar  
    14     6    11 ar  
    15     7    10 ar  
    16     7    11 ar  
    17     7    25 1   
    18     8     9 ar  
    19     8    26 1   
    20     9    10 ar  
    21     9    31 1   
    22    10    27 1   
    23    11    28 1   
    24    13    14 1   
    25    13    20 ar  
    26    14    15 1   
    27    14    16 1   
    28    14    17 1   
    29    18    19 ar  
    30    19    20 ar  
    31    19    29 1   
    32    20    30 1   
@<TRIPOS>SUBSTRUCTURE
     1 QXX         1 TEMP              0 ****  ****    0 ROOT
