@<TRIPOS>MOLECULE
QXY
   50    52     1     0     0
SMALL
No Charge or Current Charge


@<TRIPOS>ATOM
      1 C4          -4.1780     0.3220     1.8920 c6         1 QXY       0.092500
      2 C5          -5.3100     0.7500     0.9210 c6         1 QXY       0.139800
      3 C6          -1.8190     0.6980     1.0560 c          1 QXY       0.612700
      4 N1          -2.9570    -0.1320     1.1680 n          1 QXY      -0.399800
      5 C7          -0.5130     0.0880     0.5850 ca         1 QXY      -0.136600
      6 C8           0.4430     0.9030    -0.0580 ca         1 QXY      -0.078000
      7 N2           4.4800    -0.7330    -0.4090 na         1 QXY       0.122800
      8 C9           1.6700     0.3680    -0.4860 ca         1 QXY      -0.102500
      9 C10          1.9740    -0.9890    -0.2630 ca         1 QXY      -0.100300
     10 C11          3.3090    -1.5790    -0.7180 c3         1 QXY       0.129900
     11 C12          5.0050    -0.4800     0.8590 cc         1 QXY      -0.124300
     12 N3           5.1790    -0.1110    -1.4310 nc         1 QXY      -0.532800
     13 C13          4.4700    -1.0040     2.1650 c3         1 QXY      -0.032800
     14 C14          6.0670     0.3370     0.6060 cd         1 QXY      -0.231000
     15 C15          6.1320     0.5310    -0.7860 cd         1 QXY       0.262300
     16 O           -1.8610     1.8690     1.4170 o          1 QXY      -0.594100
     17 C3          -3.2710    -1.1820     0.1530 c6         1 QXY       0.092500
     18 C2          -4.4290    -0.7580    -0.7950 c6         1 QXY       0.139800
     19 N           -5.6520    -0.3330    -0.0470 n3         1 QXY      -0.720600
     20 C1          -6.7900     0.0440    -0.9220 c3         1 QXY       0.169800
     21 C           -7.3370    -1.1030    -1.7950 c3         1 QXY      -0.090100
     22 C18         -0.1940    -1.2680     0.8250 ca         1 QXY      -0.078000
     23 C17          1.0330    -1.8010     0.3970 ca         1 QXY      -0.102500
     24 C16          7.1410     1.3600    -1.5300 c3         1 QXY      -0.118400
     25 H1          -3.9420     1.1540     2.5700 h1         1 QXY       0.064950
     26 H2          -4.5420    -0.5040     2.5180 h1         1 QXY       0.064950
     27 H3          -6.1940     1.0250     1.5150 h1         1 QXY       0.040950
     28 H4          -4.9890     1.6550     0.3820 h1         1 QXY       0.040950
     29 H5           0.2310     1.9550    -0.2380 ha         1 QXY       0.126000
     30 H6           2.3850     1.0140    -0.9910 ha         1 QXY       0.124000
     31 H7           3.2710    -1.7460    -1.8020 h1         1 QXY       0.073200
     32 H8           3.4650    -2.5550    -0.2440 h1         1 QXY       0.073200
     33 H9           4.4260    -2.1000     2.1610 hc         1 QXY       0.051367
     34 H10          5.1070    -0.6970     3.0030 hc         1 QXY       0.051367
     35 H11          3.4590    -0.6240     2.3540 hc         1 QXY       0.051367
     36 H12          6.7410     0.7620     1.3420 ha         1 QXY       0.143000
     37 H13         -2.3960    -1.4090    -0.4680 h1         1 QXY       0.064950
     38 H14         -3.5530    -2.1070     0.6750 h1         1 QXY       0.064950
     39 H15         -4.0750     0.0640    -1.4350 h1         1 QXY       0.040950
     40 H16         -4.6510    -1.6080    -1.4560 h1         1 QXY       0.040950
     41 H18         -7.6190     0.4020    -0.2970 h1         1 QXY       0.030700
     42 H19         -6.5010     0.8780    -1.5770 h1         1 QXY       0.030700
     43 H20         -8.2470    -0.7790    -2.3120 hc         1 QXY       0.037700
     44 H21         -6.6100    -1.4070    -2.5560 hc         1 QXY       0.037700
     45 H22         -7.5860    -1.9740    -1.1770 hc         1 QXY       0.037700
     46 H23         -0.8880    -1.9130     1.3600 ha         1 QXY       0.126000
     47 H24          1.2550    -2.8490     0.5900 ha         1 QXY       0.124000
     48 H25          6.6510     2.1630    -2.0920 hc         1 QXY       0.046033
     49 H26          7.8570     1.8210    -0.8410 hc         1 QXY       0.046033
     50 H27          7.7070     0.7450    -2.2400 hc         1 QXY       0.046033
@<TRIPOS>BOND
     1     1     2 1   
     2     1     4 1   
     3     1    25 1   
     4     1    26 1   
     5     2    19 1   
     6     2    27 1   
     7     2    28 1   
     8     3     4 1   
     9     3     5 1   
    10     3    16 2   
    11     4    17 1   
    12     5     6 ar  
    13     5    22 ar  
    14     6     8 ar  
    15     6    29 1   
    16     7    10 1   
    17     7    11 1   
    18     7    12 1   
    19     8     9 ar  
    20     8    30 1   
    21     9    10 1   
    22     9    23 ar  
    23    10    31 1   
    24    10    32 1   
    25    11    13 1   
    26    11    14 2   
    27    12    15 2   
    28    13    33 1   
    29    13    34 1   
    30    13    35 1   
    31    14    15 1   
    32    14    36 1   
    33    15    24 1   
    34    17    18 1   
    35    17    37 1   
    36    17    38 1   
    37    18    19 1   
    38    18    39 1   
    39    18    40 1   
    40    19    20 1   
    41    20    21 1   
    42    20    41 1   
    43    20    42 1   
    44    21    43 1   
    45    21    44 1   
    46    21    45 1   
    47    22    23 ar  
    48    22    46 1   
    49    23    47 1   
    50    24    48 1   
    51    24    49 1   
    52    24    50 1   
@<TRIPOS>SUBSTRUCTURE
     1 QXY         1 TEMP              0 ****  ****    0 ROOT
