@<TRIPOS>MOLECULE
QXY
   50    52     1     0     0
SMALL
abcg2


@<TRIPOS>ATOM
      1 C4          -4.1870     0.3130     1.8360 c6         1 QXY       0.092500
      2 C5          -5.0970     0.8410     0.7420 c6         1 QXY       0.139800
      3 C6          -1.7980     0.4540     1.4130 c          1 QXY       0.612700
      4 N1          -2.9590    -0.2160     1.2690 n          1 QXY      -0.399800
      5 C7          -0.5530    -0.1710     0.8670 ca         1 QXY      -0.136600
      6 C8           0.2990     0.6050     0.0860 ca         1 QXY      -0.078000
      7 N2           4.3040    -0.8120    -0.3420 na         1 QXY       0.122800
      8 C9           1.5050     0.0910    -0.3580 ca         1 QXY      -0.102500
      9 C10          1.9020    -1.1950     0.0020 ca         1 QXY      -0.100300
     10 C11          3.2200    -1.7530    -0.4750 c3         1 QXY       0.129900
     11 C12          4.9150    -0.4350     0.8020 cc         1 QXY      -0.124300
     12 N3           4.7360    -0.1240    -1.4060 nc         1 QXY      -0.532800
     13 C13          4.6040    -1.0380     2.1240 c3         1 QXY      -0.032800
     14 C14          5.8090     0.5490     0.4450 cd         1 QXY      -0.231000
     15 C15          5.6550     0.7040    -0.9470 cd         1 QXY       0.262300
     16 O           -1.7110     1.5250     2.0020 o          1 QXY      -0.594100
     17 C3          -3.2190    -1.2400     0.2710 c6         1 QXY       0.092500
     18 C2          -4.1570    -0.7060    -0.8010 c6         1 QXY       0.139800
     19 N           -5.3880    -0.2020    -0.2240 n3         1 QXY      -0.720600
     20 C1          -6.3310     0.2500    -1.2330 c3         1 QXY       0.169800
     21 C           -6.9530    -0.8860    -2.0270 c3         1 QXY      -0.090100
     22 C18         -0.1640    -1.4580     1.2220 ca         1 QXY      -0.078000
     23 C17          1.0600    -1.9590     0.8010 ca         1 QXY      -0.102500
     24 C16          6.3800     1.6400    -1.8530 c3         1 QXY      -0.118400
     25 H1          -3.9610     1.0960     2.5550 h1         1 QXY       0.064950
     26 H2          -4.6920    -0.4970     2.3700 h1         1 QXY       0.064950
     27 H3          -6.0310     1.1810     1.1950 h1         1 QXY       0.040950
     28 H4          -4.6250     1.7220     0.2710 h1         1 QXY       0.040950
     29 H5           0.0160     1.6130    -0.1890 ha         1 QXY       0.126000
     30 H6           2.1460     0.7020    -0.9810 ha         1 QXY       0.124000
     31 H7           3.1600    -2.0220    -1.5300 h1         1 QXY       0.073200
     32 H8           3.4650    -2.6670     0.0700 h1         1 QXY       0.073200
     33 H9           4.7530    -2.1200     2.1230 hc         1 QXY       0.051367
     34 H10          5.2550    -0.6160     2.8860 hc         1 QXY       0.051367
     35 H11          3.5720    -0.8510     2.4250 hc         1 QXY       0.051367
     36 H12          6.4850     1.0770     1.0980 ha         1 QXY       0.143000
     37 H13         -2.2950    -1.5710    -0.1960 h1         1 QXY       0.064950
     38 H14         -3.6710    -2.1060     0.7620 h1         1 QXY       0.064950
     39 H15         -3.6290     0.0740    -1.3790 h1         1 QXY       0.040950
     40 H16         -4.3760    -1.5200    -1.4930 h1         1 QXY       0.040950
     41 H18         -7.1290     0.7900    -0.7170 h1         1 QXY       0.030700
     42 H19         -5.8650     0.9760    -1.9200 h1         1 QXY       0.030700
     43 H20         -7.7030    -0.4910    -2.7130 hc         1 QXY       0.037700
     44 H21         -6.2240    -1.4330    -2.6260 hc         1 QXY       0.037700
     45 H22         -7.4440    -1.5970    -1.3620 hc         1 QXY       0.037700
     46 H23         -0.8020    -2.0680     1.8490 ha         1 QXY       0.126000
     47 H24          1.3610    -2.9530     1.1080 ha         1 QXY       0.124000
     48 H25          6.1660     2.6800    -1.6010 hc         1 QXY       0.046033
     49 H26          7.4590     1.5070    -1.7790 hc         1 QXY       0.046033
     50 H27          6.0900     1.4800    -2.8900 hc         1 QXY       0.046033
@<TRIPOS>BOND
     1     1     2 1   
     2     1     4 1   
     3     1    25 1   
     4     1    26 1   
     5     2    19 1   
     6     2    27 1   
     7     2    28 1   
     8     3     4 1   
     9     3     5 1   
    10     3    16 2   
    11     4    17 1   
    12     5     6 ar  
    13     5    22 ar  
    14     6     8 ar  
    15     6    29 1   
    16     7    10 1   
    17     7    11 1   
    18     7    12 1   
    19     8     9 ar  
    20     8    30 1   
    21     9    10 1   
    22     9    23 ar  
    23    10    31 1   
    24    10    32 1   
    25    11    13 1   
    26    11    14 2   
    27    12    15 2   
    28    13    33 1   
    29    13    34 1   
    30    13    35 1   
    31    14    15 1   
    32    14    36 1   
    33    15    24 1   
    34    17    18 1   
    35    17    37 1   
    36    17    38 1   
    37    18    19 1   
    38    18    39 1   
    39    18    40 1   
    40    19    20 1   
    41    20    21 1   
    42    20    41 1   
    43    20    42 1   
    44    21    43 1   
    45    21    44 1   
    46    21    45 1   
    47    22    23 ar  
    48    22    46 1   
    49    23    47 1   
    50    24    48 1   
    51    24    49 1   
    52    24    50 1   
@<TRIPOS>SUBSTRUCTURE
     1 QXY         1 TEMP              0 ****  ****    0 ROOT
