@<TRIPOS>MOLECULE
QXZ
   54    58     1     0     0
SMALL
abcg2


@<TRIPOS>ATOM
      1 C12         -2.7130     7.2650    13.7770 c3         1 QXZ       0.142900
      2 O2          -3.2410     8.4880    14.2450 os         1 QXZ      -0.322600
      3 C11         -3.9460     8.4970    15.3880 ca         1 QXZ       0.185600
      4 C9          -4.3600     9.7570    15.8220 ca         1 QXZ       0.001100
      5 O1          -4.0780    10.8670    15.0870 os         1 QXZ      -0.323100
      6 C10         -2.8420    11.4850    15.4170 c3         1 QXZ       0.146900
      7 C7          -5.0750     9.8670    17.0180 ca         1 QXZ       0.185600
      8 O           -5.4220    11.1140    17.3750 os         1 QXZ      -0.322600
      9 C8          -6.1650    11.3000    18.5620 c3         1 QXZ       0.142900
     10 C6          -5.3900     8.7300    17.7520 ca         1 QXZ      -0.268000
     11 C13         -4.2610     7.3480    16.1150 ca         1 QXZ      -0.268000
     12 C5          -4.9810     7.4750    17.2990 ca         1 QXZ       0.377000
     13 N1          -5.2850     6.3970    18.1300 nu         1 QXZ      -0.926900
     14 C4          -5.3770     5.0690    17.8730 cc         1 QXZ       0.355900
     15 N           -5.5970     4.3370    19.0170 nc         1 QXZ      -0.231000
     16 C3          -5.6670     3.0500    18.8880 cd         1 QXZ       0.231900
     17 N2          -5.2730     4.6160    16.6560 nd         1 QXZ      -0.319800
     18 N3          -5.3710     3.2770    16.5620 na         1 QXZ       0.221000
     19 C2          -5.5420     2.4260    17.6390 cd         1 QXZ      -0.316000
     20 C14         -5.3100     2.5220    15.4570 cd         1 QXZ       0.466100
     21 N5          -5.4190     1.2290    15.7750 nc         1 QXZ      -0.593300
     22 C1          -5.5610     1.1440    17.1030 cc         1 QXZ       0.122400
     23 C           -5.7100    -0.1450    17.8260 c3         1 QXZ      -0.021900
     24 C15         -5.1660     3.0020    14.1100 cd         1 QXZ      -0.096700
     25 N4          -4.9940     2.0900    13.1000 na         1 QXZ      -0.200700
     26 C22         -4.9000     2.7420    11.9100 ca         1 QXZ      -0.035200
     27 C17         -5.0190     4.1260    12.1730 ca         1 QXZ      -0.115800
     28 C16         -5.1900     4.2690    13.5800 cc         1 QXZ      -0.194200
     29 C21         -4.7220     2.2440    10.6190 ca         1 QXZ      -0.130000
     30 C20         -4.6630     3.1610     9.5890 ca         1 QXZ      -0.086000
     31 C19         -4.7780     4.5430     9.8280 ca         1 QXZ      -0.144000
     32 C18         -4.9550     5.0320    11.1050 ca         1 QXZ      -0.057000
     33 H1          -2.1560     7.4980    12.8720 h1         1 QXZ       0.044700
     34 H2          -2.0330     6.8090    14.5000 h1         1 QXZ       0.044700
     35 H3          -3.4970     6.5470    13.5290 h1         1 QXZ       0.044700
     36 H4          -2.7370    12.3570    14.7740 h1         1 QXZ       0.032700
     37 H5          -2.8180    11.8150    16.4590 h1         1 QXZ       0.032700
     38 H6          -1.9940    10.8180    15.2430 h1         1 QXZ       0.032700
     39 H7          -6.3520    12.3670    18.6430 h1         1 QXZ       0.044700
     40 H8          -7.1240    10.7760    18.5310 h1         1 QXZ       0.044700
     41 H9          -5.6120    10.9710    19.4460 h1         1 QXZ       0.044700
     42 H10         -5.9480     8.7980    18.6770 ha         1 QXZ       0.134500
     43 H11         -3.9390     6.3750    15.7800 ha         1 QXZ       0.134500
     44 H12         -5.5140     6.6300    19.0840 hn         1 QXZ       0.517000
     45 H13         -5.8310     2.4540    19.7800 h4         1 QXZ       0.039100
     46 H14         -6.5710    -0.7030    17.4570 hc         1 QXZ       0.052367
     47 H15         -4.8290    -0.7740    17.6870 hc         1 QXZ       0.052367
     48 H16         -5.8430     0.0110    18.8950 hc         1 QXZ       0.052367
     49 H17         -4.9470     1.0930    13.2370 hn         1 QXZ       0.368000
     50 H18         -5.3330     5.1840    14.1290 ha         1 QXZ       0.221000
     51 H19         -4.6320     1.1820    10.4330 ha         1 QXZ       0.115000
     52 H20         -4.5250     2.8100     8.5740 ha         1 QXZ       0.110000
     53 H21         -4.7270     5.2290     8.9920 ha         1 QXZ       0.112000
     54 H22         -5.0430     6.0970    11.2820 ha         1 QXZ       0.117000
@<TRIPOS>BOND
     1     1     2 1   
     2     1    33 1   
     3     1    34 1   
     4     1    35 1   
     5     2     3 1   
     6     3     4 ar  
     7     3    11 ar  
     8     4     5 1   
     9     4     7 ar  
    10     5     6 1   
    11     6    36 1   
    12     6    37 1   
    13     6    38 1   
    14     7     8 1   
    15     7    10 ar  
    16     8     9 1   
    17     9    39 1   
    18     9    40 1   
    19     9    41 1   
    20    10    12 ar  
    21    10    42 1   
    22    11    12 ar  
    23    11    43 1   
    24    12    13 1   
    25    13    14 1   
    26    13    44 1   
    27    14    15 1   
    28    14    17 2   
    29    15    16 2   
    30    16    19 1   
    31    16    45 1   
    32    17    18 1   
    33    18    19 1   
    34    18    20 1   
    35    19    22 2   
    36    20    21 2   
    37    20    24 1   
    38    21    22 1   
    39    22    23 1   
    40    23    46 1   
    41    23    47 1   
    42    23    48 1   
    43    24    25 1   
    44    24    28 2   
    45    25    26 1   
    46    25    49 1   
    47    26    27 ar  
    48    26    29 ar  
    49    27    28 1   
    50    27    32 ar  
    51    28    50 1   
    52    29    30 ar  
    53    29    51 1   
    54    30    31 ar  
    55    30    52 1   
    56    31    32 ar  
    57    31    53 1   
    58    32    54 1   
@<TRIPOS>SUBSTRUCTURE
     1 QXZ         1 TEMP              0 ****  ****    0 ROOT
