@<TRIPOS>MOLECULE
QXZ
   54    58     1     0     0
SMALL
No Charge or Current Charge


@<TRIPOS>ATOM
      1 C12         -2.0660     7.2330    14.2000 c3         1 QXZ       0.142900
      2 O2          -2.7380     8.4410    14.6020 os         1 QXZ      -0.322600
      3 C11         -3.5970     8.5090    15.6860 ca         1 QXZ       0.185600
      4 C9          -4.2660     9.7290    16.0130 ca         1 QXZ       0.001100
      5 O1          -4.1300    10.9250    15.3050 os         1 QXZ      -0.323100
      6 C10         -3.3140    11.1060    14.1340 c3         1 QXZ       0.146900
      7 C7          -5.1320     9.7560    17.1330 ca         1 QXZ       0.185600
      8 O           -5.7680    10.9490    17.4400 os         1 QXZ      -0.322600
      9 C8          -6.6680    11.0860    18.5540 c3         1 QXZ       0.142900
     10 C6          -5.3380     8.5970    17.9060 ca         1 QXZ      -0.268000
     11 C13         -3.8190     7.3660    16.4840 ca         1 QXZ      -0.268000
     12 C5          -4.6950     7.4070    17.5710 ca         1 QXZ       0.377000
     13 N1          -4.9220     6.2820    18.3560 nu         1 QXZ      -0.926900
     14 C4          -5.1510     4.9670    18.0550 cc         1 QXZ       0.355900
     15 N           -5.3680     4.2150    19.2030 nc         1 QXZ      -0.231000
     16 C3          -5.5910     2.9220    19.0010 cd         1 QXZ       0.231900
     17 N2          -5.1440     4.6110    16.7650 nd         1 QXZ      -0.319800
     18 N3          -5.3950     3.2670    16.6170 na         1 QXZ       0.221000
     19 C2          -5.5950     2.4520    17.6670 cd         1 QXZ      -0.316000
     20 C14         -5.4270     2.5260    15.4420 cd         1 QXZ       0.466100
     21 N5          -5.6620     1.2440    15.7670 nc         1 QXZ      -0.593300
     22 C1          -5.7690     1.1990    17.1460 cc         1 QXZ       0.122400
     23 C           -6.0260    -0.0890    17.8780 c3         1 QXZ      -0.021900
     24 C15         -5.2370     3.0040    14.0840 cd         1 QXZ      -0.096700
     25 N4          -5.2630     2.1550    12.9500 na         1 QXZ      -0.200700
     26 C22         -5.0340     2.9840    11.8620 ca         1 QXZ      -0.035200
     27 C17         -4.8750     4.2850    12.2620 ca         1 QXZ      -0.115800
     28 C16         -5.0050     4.3200    13.6870 cc         1 QXZ      -0.194200
     29 C21         -4.9570     2.6250    10.5100 ca         1 QXZ      -0.130000
     30 C20         -4.7100     3.6440     9.5630 ca         1 QXZ      -0.086000
     31 C19         -4.5470     4.9860     9.9830 ca         1 QXZ      -0.144000
     32 C18         -4.6290     5.3200    11.3510 ca         1 QXZ      -0.057000
     33 H1          -1.4500     7.4200    13.3120 h1         1 QXZ       0.044700
     34 H2          -1.4070     6.8680    14.9980 h1         1 QXZ       0.044700
     35 H3          -2.7900     6.4480    13.9500 h1         1 QXZ       0.044700
     36 H4          -3.3960    12.1390    13.7750 h1         1 QXZ       0.032700
     37 H5          -2.2570    10.9140    14.3590 h1         1 QXZ       0.032700
     38 H6          -3.6380    10.4420    13.3230 h1         1 QXZ       0.032700
     39 H7          -7.0520    12.1120    18.6070 h1         1 QXZ       0.044700
     40 H8          -7.5250    10.4080    18.4490 h1         1 QXZ       0.044700
     41 H9          -6.1570    10.8660    19.4990 h1         1 QXZ       0.044700
     42 H10         -6.0050     8.6030    18.7610 ha         1 QXZ       0.134500
     43 H11         -3.3080     6.4350    16.2770 ha         1 QXZ       0.134500
     44 H12         -5.1800     6.4970    19.3170 hn         1 QXZ       0.517000
     45 H13         -5.7500     2.3110    19.8810 h4         1 QXZ       0.039100
     46 H14         -6.1800    -0.9220    17.1820 hc         1 QXZ       0.052367
     47 H15         -5.1790    -0.3410    18.5260 hc         1 QXZ       0.052367
     48 H16         -6.9200    -0.0050    18.5070 hc         1 QXZ       0.052367
     49 H17         -5.4140     1.1510    12.9450 hn         1 QXZ       0.368000
     50 H18         -4.9430     5.2010    14.3200 ha         1 QXZ       0.221000
     51 H19         -5.0830     1.5920    10.1950 ha         1 QXZ       0.115000
     52 H20         -4.6460     3.3950     8.5060 ha         1 QXZ       0.110000
     53 H21         -4.3570     5.7640     9.2470 ha         1 QXZ       0.112000
     54 H22         -4.5050     6.3470    11.6880 ha         1 QXZ       0.117000
@<TRIPOS>BOND
     1     1     2 1   
     2     1    33 1   
     3     1    34 1   
     4     1    35 1   
     5     2     3 1   
     6     3     4 ar  
     7     3    11 ar  
     8     4     5 1   
     9     4     7 ar  
    10     5     6 1   
    11     6    36 1   
    12     6    37 1   
    13     6    38 1   
    14     7     8 1   
    15     7    10 ar  
    16     8     9 1   
    17     9    39 1   
    18     9    40 1   
    19     9    41 1   
    20    10    12 ar  
    21    10    42 1   
    22    11    12 ar  
    23    11    43 1   
    24    12    13 1   
    25    13    14 1   
    26    13    44 1   
    27    14    15 1   
    28    14    17 2   
    29    15    16 2   
    30    16    19 1   
    31    16    45 1   
    32    17    18 1   
    33    18    19 1   
    34    18    20 1   
    35    19    22 2   
    36    20    21 2   
    37    20    24 1   
    38    21    22 1   
    39    22    23 1   
    40    23    46 1   
    41    23    47 1   
    42    23    48 1   
    43    24    25 1   
    44    24    28 2   
    45    25    26 1   
    46    25    49 1   
    47    26    27 ar  
    48    26    29 ar  
    49    27    28 1   
    50    27    32 ar  
    51    28    50 1   
    52    29    30 ar  
    53    29    51 1   
    54    30    31 ar  
    55    30    52 1   
    56    31    32 ar  
    57    31    53 1   
    58    32    54 1   
@<TRIPOS>SUBSTRUCTURE
     1 QXZ         1 TEMP              0 ****  ****    0 ROOT
