@<TRIPOS>MOLECULE
QY1
   49    52     1     0     0
SMALL
No Charge or Current Charge


@<TRIPOS>ATOM
      1 C7           4.3970     8.4170    64.2740 ca         1 QY1      -0.077000
      2 C6           3.9710    14.4940    62.8230 ca         1 QY1      -0.081500
      3 C1           2.8760     7.0750    62.9280 ca         1 QY1      -0.114000
      4 C5           4.5960    15.5380    60.7220 ca         1 QY1      -0.081500
      5 C4           4.7650     9.3890    60.7100 ca         1 QY1      -0.072000
      6 C3           3.3260     7.7310    61.7710 ca         1 QY1      -0.092000
      7 C2           3.4120     7.4180    64.1800 ca         1 QY1      -0.111000
      8 C8           5.7120    14.6870    60.6340 ca         1 QY1      -0.172500
      9 C9           5.0860    13.6410    62.7350 ca         1 QY1      -0.172500
     10 C10          5.7460    10.3810    60.8480 ca         1 QY1      -0.133000
     11 C11          4.3120     8.7320    61.8670 ca         1 QY1      -0.082000
     12 C12          3.7110    15.4460    61.8150 ca         1 QY1      -0.033300
     13 C13          4.8610     9.0880    63.1260 ca         1 QY1       0.274000
     14 C14          5.9590    13.7310    61.6300 ca         1 QY1       0.081100
     15 C15          6.2410    10.6890    62.1300 ca         1 QY1       0.339300
     16 C16          2.7380    17.5270    62.8900 c          1 QY1       0.725000
     17 C17         -1.2580    15.4560    62.1540 c5         1 QY1      -0.079900
     18 C18         -0.6520    14.1400    61.5690 c5         1 QY1      -0.079900
     19 C19         -0.1200    16.5080    62.0270 c5         1 QY1      -0.078400
     20 C20          0.7960    14.5220    61.1490 c5         1 QY1      -0.078400
     21 C21          1.1500    15.6310    62.1740 c5         1 QY1      -0.033700
     22 C22          7.3140    11.7680    62.3250 c3         1 QY1       0.109300
     23 C23          2.4890    16.3720    61.8880 c3         1 QY1      -0.153400
     24 N24          5.8100    10.0470    63.2460 nb         1 QY1      -0.669000
     25 O27          7.0650    12.9180    61.4810 os         1 QY1      -0.354100
     26 H1           4.8060     8.6770    65.2460 ha         1 QY1       0.130000
     27 H2           3.3120    14.4130    63.6840 ha         1 QY1       0.126500
     28 H3           2.1140     6.3020    62.8540 ha         1 QY1       0.107000
     29 H4           4.4200    16.2690    59.9360 ha         1 QY1       0.126500
     30 H5           4.3660     9.1390    59.7290 ha         1 QY1       0.114000
     31 H6           2.9080     7.4620    60.8030 ha         1 QY1       0.110000
     32 H7           3.0650     6.9100    65.0770 ha         1 QY1       0.110000
     33 H8           6.3840    14.7650    59.7830 ha         1 QY1       0.107000
     34 H9           5.2550    12.9250    63.5330 ha         1 QY1       0.107000
     35 H10          6.1190    10.9100    59.9750 ha         1 QY1       0.139000
     36 H13         -1.2310    13.7600    60.7190 hc         1 QY1       0.022700
     37 H14         -0.6440    13.3480    62.3280 hc         1 QY1       0.022700
     38 H15         -0.1530    17.0150    61.0540 hc         1 QY1       0.042450
     39 H16         -0.1900    17.2830    62.7980 hc         1 QY1       0.042450
     40 H17          1.4770    13.6650    61.2020 hc         1 QY1       0.042450
     41 H18          0.8280    14.8970    60.1190 hc         1 QY1       0.042450
     42 H19          1.2080    15.2160    63.1880 hc         1 QY1       0.058700
     43 H20          8.2860    11.3270    62.0720 h1         1 QY1       0.067700
     44 H21          7.3620    12.0650    63.3810 h1         1 QY1       0.067700
     45 H22          2.3830    16.8420    60.9020 hc         1 QY1       0.039700
     46 O25          2.8320    18.6630    62.4460 o          1 QY1      -0.726000
     47 H11         -2.1600    15.7700    61.6170 hc         1 QY1       0.022700
     48 O26          2.8630    17.2620    64.0770 o          1 QY1      -0.726000
     49 H12         -1.5450    15.3150    63.2030 hc         1 QY1       0.022700
@<TRIPOS>BOND
     1     1     7 ar  
     2     1    13 ar  
     3     1    26 1   
     4     2     9 ar  
     5     2    12 ar  
     6     2    27 1   
     7     3     6 ar  
     8     3     7 ar  
     9     3    28 1   
    10     4     8 ar  
    11     4    12 ar  
    12     4    29 1   
    13     5    10 ar  
    14     5    11 ar  
    15     5    30 1   
    16     6    11 ar  
    17     6    31 1   
    18     7    32 1   
    19     8    14 ar  
    20     8    33 1   
    21     9    14 ar  
    22     9    34 1   
    23    10    15 ar  
    24    10    35 1   
    25    11    13 ar  
    26    12    23 1   
    27    13    24 ar  
    28    14    25 1   
    29    15    22 1   
    30    15    24 ar  
    31    16    23 1   
    32    16    46 1   
    33    16    48 1   
    34    17    18 1   
    35    17    19 1   
    36    17    47 1   
    37    17    49 1   
    38    18    20 1   
    39    18    36 1   
    40    18    37 1   
    41    19    21 1   
    42    19    38 1   
    43    19    39 1   
    44    20    21 1   
    45    20    40 1   
    46    20    41 1   
    47    21    23 1   
    48    21    42 1   
    49    22    25 1   
    50    22    43 1   
    51    22    44 1   
    52    23    45 1   
@<TRIPOS>SUBSTRUCTURE
     1 QY1         1 TEMP              0 ****  ****    0 ROOT
