@<TRIPOS>MOLECULE
QY1
   49    52     1     0     0
SMALL
abcg2


@<TRIPOS>ATOM
      1 C7           5.1110     8.2790    64.5270 ca         1 QY1      -0.077000
      2 C6           3.8510    14.3410    62.8080 ca         1 QY1      -0.081500
      3 C1           3.5300     6.6820    63.6400 ca         1 QY1      -0.114000
      4 C5           4.3430    15.5590    60.8270 ca         1 QY1      -0.081500
      5 C4           4.5050     9.0650    60.9520 ca         1 QY1      -0.072000
      6 C3           3.5800     7.2770    62.4090 ca         1 QY1      -0.092000
      7 C2           4.3020     7.1890    64.7070 ca         1 QY1      -0.111000
      8 C8           5.3470    14.6580    60.5110 ca         1 QY1      -0.172500
      9 C9           4.8560    13.4280    62.5130 ca         1 QY1      -0.172500
     10 C10          5.3290    10.1450    60.8260 ca         1 QY1      -0.133000
     11 C11          4.4070     8.4030    62.1960 ca         1 QY1      -0.082000
     12 C12          3.5680    15.4210    61.9770 ca         1 QY1      -0.033300
     13 C13          5.1840     8.9100    63.2650 ca         1 QY1       0.274000
     14 C14          5.6090    13.5790    61.3520 ca         1 QY1       0.081100
     15 C15          6.0630    10.5750    61.9570 ca         1 QY1       0.339300
     16 C16          2.6030    16.9920    63.6920 c          1 QY1       0.725000
     17 C17         -1.2730    16.0830    61.4640 c5         1 QY1      -0.079900
     18 C18         -0.6650    14.9470    60.6180 c5         1 QY1      -0.079900
     19 C19         -0.1080    16.6510    62.3020 c5         1 QY1      -0.078400
     20 C20          0.8400    15.2010    60.6510 c5         1 QY1      -0.078400
     21 C21          1.0840    15.7120    62.0710 c5         1 QY1      -0.033700
     22 C22          7.0240    11.7350    61.8530 c3         1 QY1       0.109300
     23 C23          2.4430    16.3830    62.2750 c3         1 QY1      -0.153400
     24 N24          5.9910     9.9880    63.1210 nb         1 QY1      -0.669000
     25 O27          6.6040    12.7410    60.9630 os         1 QY1      -0.354100
     26 H1           5.7060     8.6750    65.3400 ha         1 QY1       0.130000
     27 H2           3.2770    14.2050    63.7150 ha         1 QY1       0.126500
     28 H3           2.8980     5.8190    63.8010 ha         1 QY1       0.107000
     29 H4           4.1570    16.3890    60.1550 ha         1 QY1       0.126500
     30 H5           3.9260     8.7070    60.1090 ha         1 QY1       0.114000
     31 H6           2.9900     6.8950    61.5850 ha         1 QY1       0.110000
     32 H7           4.2500     6.7090    65.6750 ha         1 QY1       0.110000
     33 H8           5.9340    14.7870    59.6090 ha         1 QY1       0.107000
     34 H9           5.0270    12.6130    63.2040 ha         1 QY1       0.107000
     35 H10          5.4230    10.6650    59.8820 ha         1 QY1       0.139000
     36 H13         -1.0700    14.9120    59.6060 hc         1 QY1       0.022700
     37 H14         -0.8800    13.9790    61.0780 hc         1 QY1       0.022700
     38 H15          0.1510    17.6550    61.9540 hc         1 QY1       0.042450
     39 H16         -0.3540    16.7420    63.3600 hc         1 QY1       0.042450
     40 H17          1.4260    14.3140    60.4030 hc         1 QY1       0.042450
     41 H18          1.1090    15.9800    59.9290 hc         1 QY1       0.042450
     42 H19          1.0050    14.8620    62.7580 hc         1 QY1       0.058700
     43 H20          7.9740    11.3710    61.4520 h1         1 QY1       0.067700
     44 H21          7.2250    12.1290    62.8540 h1         1 QY1       0.067700
     45 H22          2.5100    17.2030    61.5500 hc         1 QY1       0.039700
     46 O25          3.1070    18.1300    63.7530 o          1 QY1      -0.726000
     47 H11         -1.7000    16.8580    60.8260 hc         1 QY1       0.022700
     48 O26          2.2320    16.2890    64.6560 o          1 QY1      -0.726000
     49 H12         -2.0870    15.7170    62.0920 hc         1 QY1       0.022700
@<TRIPOS>BOND
     1     1     7 ar  
     2     1    13 ar  
     3     1    26 1   
     4     2     9 ar  
     5     2    12 ar  
     6     2    27 1   
     7     3     6 ar  
     8     3     7 ar  
     9     3    28 1   
    10     4     8 ar  
    11     4    12 ar  
    12     4    29 1   
    13     5    10 ar  
    14     5    11 ar  
    15     5    30 1   
    16     6    11 ar  
    17     6    31 1   
    18     7    32 1   
    19     8    14 ar  
    20     8    33 1   
    21     9    14 ar  
    22     9    34 1   
    23    10    15 ar  
    24    10    35 1   
    25    11    13 ar  
    26    12    23 1   
    27    13    24 ar  
    28    14    25 1   
    29    15    22 1   
    30    15    24 ar  
    31    16    23 1   
    32    16    46 1   
    33    16    48 1   
    34    17    18 1   
    35    17    19 1   
    36    17    47 1   
    37    17    49 1   
    38    18    20 1   
    39    18    36 1   
    40    18    37 1   
    41    19    21 1   
    42    19    38 1   
    43    19    39 1   
    44    20    21 1   
    45    20    40 1   
    46    20    41 1   
    47    21    23 1   
    48    21    42 1   
    49    22    25 1   
    50    22    43 1   
    51    22    44 1   
    52    23    45 1   
@<TRIPOS>SUBSTRUCTURE
     1 QY1         1 TEMP              0 ****  ****    0 ROOT
