@<TRIPOS>MOLECULE
QY2
   33    35     1     0     0
SMALL
No Charge or Current Charge


@<TRIPOS>ATOM
      1 N1          -3.5820    -1.1180    13.5680 ns         1 QY2      -0.440400
      2 O           -6.0960    -0.1390    11.1740 os         1 QY2      -0.343000
      3 O1          -2.4880    -1.4150    15.5480 o          1 QY2      -0.536000
      4 C2          -3.4790    -1.0940    14.9220 c          1 QY2       0.617200
      5 C3          -4.7460    -0.6080    15.5160 ce         1 QY2      -0.825400
      6 S           -5.9550    -0.2070    14.1650 sx         1 QY2       0.228400
      7 C1          -4.7340    -0.7140    12.9190 ce         1 QY2       0.597200
      8 N           -4.8730    -0.6860    11.6270 n2         1 QY2      -0.344700
      9 C           -6.1490    -0.1590     9.7340 c3         1 QY2       0.160900
     10 C4          -5.0150    -0.3200    16.9830 c3         1 QY2       0.099100
     11 C5          -5.4790     1.1110    17.2170 ca         1 QY2      -0.079300
     12 C13         -4.5530     2.1690    17.1640 ca         1 QY2      -0.094000
     13 C12         -4.9750     3.4960    17.3730 ca         1 QY2      -0.077000
     14 C8          -6.3380     3.7880    17.6390 ca         1 QY2       0.261000
     15 C7          -7.2530     2.7200    17.6860 ca         1 QY2      -0.080000
     16 C6          -6.8330     1.3950    17.4770 ca         1 QY2      -0.104000
     17 C11         -4.0440     4.5480    17.3180 ca         1 QY2      -0.062000
     18 C10         -4.5050     5.8560    17.5320 ca         1 QY2      -0.167000
     19 C9          -5.8690     6.0650    17.7900 ca         1 QY2       0.345900
     20 N2          -6.7700     5.0560    17.8430 nb         1 QY2      -0.658000
     21 H1          -2.8080    -1.4190    12.9980 hn         1 QY2       0.354500
     22 H2          -7.0980     0.2650     9.3810 h1         1 QY2       0.048700
     23 H3          -5.3310     0.4330     9.3030 h1         1 QY2       0.048700
     24 H4          -6.0740    -1.1860     9.3530 h1         1 QY2       0.048700
     25 H5          -5.7670    -1.0230    17.3670 hc         1 QY2       0.058200
     26 H6          -4.1160    -0.5090    17.5840 hc         1 QY2       0.058200
     27 H7          -3.5070     1.9550    16.9570 ha         1 QY2       0.112000
     28 H8          -8.3020     2.9240    17.8870 ha         1 QY2       0.130000
     29 H9          -7.5620     0.5890    17.5160 ha         1 QY2       0.114000
     30 H10         -2.9910     4.3590    17.1160 ha         1 QY2       0.116000
     31 H11         -3.8220     6.6990    17.5000 ha         1 QY2       0.122000
     32 H12         -6.2540     7.0700    17.9600 h4         1 QY2       0.017100
     33 H13         -5.5100     1.1070    14.0190 hs         1 QY2       0.275000
@<TRIPOS>BOND
     1     1     4 1   
     2     1     7 1   
     3     1    21 1   
     4     2     8 1   
     5     2     9 1   
     6     3     4 2   
     7     4     5 1   
     8     5     6 2   
     9     5    10 1   
    10     6     7 1   
    11     6    33 1   
    12     7     8 2   
    13     9    22 1   
    14     9    23 1   
    15     9    24 1   
    16    10    11 1   
    17    10    25 1   
    18    10    26 1   
    19    11    12 ar  
    20    11    16 ar  
    21    12    13 ar  
    22    12    27 1   
    23    13    14 ar  
    24    13    17 ar  
    25    14    15 ar  
    26    14    20 ar  
    27    15    16 ar  
    28    15    28 1   
    29    16    29 1   
    30    17    18 ar  
    31    17    30 1   
    32    18    19 ar  
    33    18    31 1   
    34    19    20 ar  
    35    19    32 1   
@<TRIPOS>SUBSTRUCTURE
     1 QY2         1 TEMP              0 ****  ****    0 ROOT
