@<TRIPOS>MOLECULE
QY2
   33    35     1     0     0
SMALL
abcg2


@<TRIPOS>ATOM
      1 N1          -3.4340    -0.9360    13.7330 ns         1 QY2      -0.440400
      2 O           -5.6500    -0.4350    11.0390 os         1 QY2      -0.343000
      3 O1          -2.9030    -1.0720    15.9740 o          1 QY2      -0.536000
      4 C2          -3.7590    -0.8180    15.1190 c          1 QY2       0.617200
      5 C3          -5.1050    -0.4590    15.3000 ce         1 QY2      -0.825400
      6 S           -5.9210    -0.2330    13.8100 sx         1 QY2       0.228400
      7 C1          -4.4280    -0.6960    12.8520 ce         1 QY2       0.597200
      8 N           -4.3880    -0.7280    11.5830 n2         1 QY2      -0.344700
      9 C           -5.5390    -0.2930     9.6220 c3         1 QY2       0.160900
     10 C4          -5.7980    -0.2730    16.6060 c3         1 QY2       0.099100
     11 C5          -5.8570     1.1490    17.1360 ca         1 QY2      -0.079300
     12 C13         -5.1590     2.1790    16.5590 ca         1 QY2      -0.094000
     13 C12         -5.2160     3.4910    17.0870 ca         1 QY2      -0.077000
     14 C8          -6.0130     3.7490    18.2390 ca         1 QY2       0.261000
     15 C7          -6.7310     2.6750    18.8190 ca         1 QY2      -0.080000
     16 C6          -6.6530     1.4190    18.2800 ca         1 QY2      -0.104000
     17 C11         -4.5090     4.5760    16.5230 ca         1 QY2      -0.062000
     18 C10         -4.6140     5.8160    17.0960 ca         1 QY2      -0.167000
     19 C9          -5.4310     5.9710    18.2370 ca         1 QY2       0.345900
     20 N2          -6.1070     4.9900    18.7950 nb         1 QY2      -0.658000
     21 H1          -2.5530    -1.3370    13.4440 hn         1 QY2       0.354500
     22 H2          -6.5490    -0.0850     9.2760 h1         1 QY2       0.048700
     23 H3          -4.8770     0.5370     9.3690 h1         1 QY2       0.048700
     24 H4          -5.1710    -1.2170     9.1730 h1         1 QY2       0.048700
     25 H5          -6.8200    -0.6640    16.5580 hc         1 QY2       0.058200
     26 H6          -5.2800    -0.8930    17.3440 hc         1 QY2       0.058200
     27 H7          -4.5450     1.9970    15.6850 ha         1 QY2       0.112000
     28 H8          -7.3390     2.8750    19.6920 ha         1 QY2       0.130000
     29 H9          -7.2100     0.6050    18.7310 ha         1 QY2       0.114000
     30 H10         -3.8940     4.4120    15.6460 ha         1 QY2       0.116000
     31 H11         -4.0880     6.6710    16.6940 ha         1 QY2       0.122000
     32 H12         -5.5210     6.9490    18.6990 h4         1 QY2       0.017100
     33 H13         -5.8170     1.0850    13.4170 hs         1 QY2       0.275000
@<TRIPOS>BOND
     1     1     4 1   
     2     1     7 1   
     3     1    21 1   
     4     2     8 1   
     5     2     9 1   
     6     3     4 2   
     7     4     5 1   
     8     5     6 2   
     9     5    10 1   
    10     6     7 1   
    11     6    33 1   
    12     7     8 2   
    13     9    22 1   
    14     9    23 1   
    15     9    24 1   
    16    10    11 1   
    17    10    25 1   
    18    10    26 1   
    19    11    12 ar  
    20    11    16 ar  
    21    12    13 ar  
    22    12    27 1   
    23    13    14 ar  
    24    13    17 ar  
    25    14    15 ar  
    26    14    20 ar  
    27    15    16 ar  
    28    15    28 1   
    29    16    29 1   
    30    17    18 ar  
    31    17    30 1   
    32    18    19 ar  
    33    18    31 1   
    34    19    20 ar  
    35    19    32 1   
@<TRIPOS>SUBSTRUCTURE
     1 QY2         1 TEMP              0 ****  ****    0 ROOT
