@<TRIPOS>MOLECULE
QY3
   56    59     1     0     0
SMALL
No Charge or Current Charge


@<TRIPOS>ATOM
      1 C10        -24.0940    23.3750    18.2970 ca         1 QY3       0.123000
      2 C15        -24.1990    26.0180    16.0770 c6         1 QY3       0.188300
      3 C20        -26.0400    27.2090    11.4640 cc         1 QY3      -0.133000
      4 C21        -26.2170    26.2250    10.4620 cc         1 QY3      -0.126000
      5 C22        -27.0880    25.2120    10.8030 cd         1 QY3      -0.162000
      6 C24        -27.4660    24.0380     9.9580 ca         1 QY3      -0.034000
      7 C26        -27.2130    22.8110     7.8380 ca         1 QY3      -0.123000
      8 C28        -28.7030    21.9490     9.5380 ca         1 QY3      -0.143000
      9 N01        -23.2330    20.0550    18.7450 n8         1 QY3      -0.998100
     10 S02        -24.1880    20.7260    17.6090 sy         1 QY3       1.177600
     11 O03        -25.2550    19.7520    17.3780 o          1 QY3      -0.546000
     12 O04        -23.2480    21.1320    16.5690 o          1 QY3      -0.546000
     13 C05        -24.7900    22.1610    18.4710 ca         1 QY3      -0.431500
     14 C06        -25.9250    22.1280    19.2900 ca         1 QY3       0.454000
     15 C07        -26.3580    23.2880    19.9390 ca         1 QY3      -0.231000
     16 C08        -25.6720    24.4970    19.7740 ca         1 QY3       0.077000
     17 C09        -24.5420    24.5390    18.9440 ca         1 QY3      -0.395500
     18 S11        -23.6540    26.0810    18.7200 sy         1 QY3       1.186600
     19 O12        -23.9420    26.9850    19.8380 o          1 QY3      -0.544500
     20 O13        -22.2710    25.7950    18.3230 o          1 QY3      -0.544500
     21 N14        -24.4080    26.7620    17.3540 n3         1 QY3      -0.717500
     22 C16        -24.7850    26.7780    14.8480 c6         1 QY3       0.167300
     23 N17        -26.2370    27.0990    15.0200 n3         1 QY3      -0.732600
     24 C18        -26.8220    27.8000    13.8570 c3         1 QY3       0.243100
     25 C19        -26.7680    26.9770    12.5990 cd         1 QY3      -0.222300
     26 S23        -27.7190    25.4910    12.4530 ss         1 QY3       0.271000
     27 C25        -26.8910    23.8970     8.6700 ca         1 QY3      -0.077000
     28 C27        -28.1200    21.8350     8.2690 ca         1 QY3      -0.083000
     29 C29        -28.3860    23.0330    10.3750 ca         1 QY3       0.166000
     30 F30        -28.9920    23.0730    11.5810 f          1 QY3      -0.182000
     31 C31        -26.4430    27.8410    16.3000 c6         1 QY3       0.167300
     32 C32        -25.8570    27.0770    17.5260 c6         1 QY3       0.188300
     33 N33        -26.6330    20.9910    19.5000 nv         1 QY3      -1.106000
     34 H1         -23.2090    23.4210    17.6600 ha         1 QY3       0.155000
     35 H2         -24.6770    25.0290    16.1260 h1         1 QY3       0.062950
     36 H3         -23.1280    25.8510    15.8920 h1         1 QY3       0.062950
     37 H4         -25.3810    28.0620    11.3290 ha         1 QY3       0.132000
     38 H5         -25.6890    26.3030     9.5180 ha         1 QY3       0.132000
     39 H6         -26.7560    22.7290     6.8540 ha         1 QY3       0.119000
     40 H7         -29.4080    21.1950     9.8790 ha         1 QY3       0.133000
     41 H8         -22.3350    20.0770    18.2690 hn         1 QY3       0.480000
     42 H9         -23.1690    20.8030    19.4290 hn         1 QY3       0.480000
     43 H10        -27.2330    23.2580    20.5810 ha         1 QY3       0.120000
     44 H11        -26.0250    25.3900    20.2890 ha         1 QY3       0.137000
     45 H12        -24.6280    26.1570    13.9540 h1         1 QY3       0.048950
     46 H13        -24.2070    27.7020    14.7020 h1         1 QY3       0.048950
     47 H15        -26.3000    28.7520    13.6830 h1         1 QY3       0.046700
     48 H16        -27.8750    28.0420    14.0570 h1         1 QY3       0.046700
     49 H17        -26.1830    24.6270     8.2920 ha         1 QY3       0.119000
     50 H18        -28.3680    20.9940     7.6240 ha         1 QY3       0.120000
     51 H19        -25.9650    28.8310    16.2460 h1         1 QY3       0.048950
     52 H20        -27.5150    28.0110    16.4740 h1         1 QY3       0.048950
     53 H21        -26.0190    27.6950    18.4210 h1         1 QY3       0.062950
     54 H22        -26.4380    26.1530    17.6620 h1         1 QY3       0.062950
     55 H23        -27.5680    21.0680    19.8910 hn         1 QY3       0.500000
     56 H24        -26.4710    20.2140    18.8600 hn         1 QY3       0.500000
@<TRIPOS>BOND
     1     1    13 ar  
     2     1    17 ar  
     3     1    34 1   
     4     2    21 1   
     5     2    22 1   
     6     2    35 1   
     7     2    36 1   
     8     3     4 1   
     9     3    25 2   
    10     3    37 1   
    11     4     5 2   
    12     4    38 1   
    13     5     6 1   
    14     5    26 1   
    15     6    27 ar  
    16     6    29 ar  
    17     7    27 ar  
    18     7    28 ar  
    19     7    39 1   
    20     8    28 ar  
    21     8    29 ar  
    22     8    40 1   
    23     9    10 1   
    24     9    41 1   
    25     9    42 1   
    26    10    11 2   
    27    10    12 2   
    28    10    13 1   
    29    13    14 ar  
    30    14    15 ar  
    31    14    33 1   
    32    15    16 ar  
    33    15    43 1   
    34    16    17 ar  
    35    16    44 1   
    36    17    18 1   
    37    18    19 2   
    38    18    20 2   
    39    18    21 1   
    40    21    32 1   
    41    22    23 1   
    42    22    45 1   
    43    22    46 1   
    44    23    24 1   
    45    23    31 1   
    46    24    25 1   
    47    24    47 1   
    48    24    48 1   
    49    25    26 1   
    50    27    49 1   
    51    28    50 1   
    52    29    30 1   
    53    31    32 1   
    54    31    51 1   
    55    31    52 1   
    56    32    53 1   
    57    32    54 1   
    58    33    55 1   
    59    33    56 1   
@<TRIPOS>SUBSTRUCTURE
     1 QY3         1 TEMP              0 ****  ****    0 ROOT
