@<TRIPOS>MOLECULE
QY3
   56    59     1     0     0
SMALL
abcg2


@<TRIPOS>ATOM
      1 C10        -24.1130    23.3990    18.1470 ca         1 QY3       0.123000
      2 C15        -24.2740    26.0200    15.9690 c6         1 QY3       0.188300
      3 C20        -26.2520    27.4480    11.3230 cc         1 QY3      -0.133000
      4 C21        -26.4800    26.4120    10.3820 cc         1 QY3      -0.126000
      5 C22        -27.0930    25.3060    10.9210 cd         1 QY3      -0.162000
      6 C24        -27.3920    24.0510    10.2300 ca         1 QY3      -0.034000
      7 C26        -26.9610    22.5220     8.3780 ca         1 QY3      -0.123000
      8 C28        -28.6690    21.9760     9.9770 ca         1 QY3      -0.143000
      9 N01        -23.3080    19.8370    18.3690 n8         1 QY3      -0.998100
     10 S02        -24.1320    20.8150    17.3460 sy         1 QY3       1.177600
     11 O03        -25.2520    20.0320    16.8690 o          1 QY3      -0.546000
     12 O04        -23.1710    21.3270    16.4020 o          1 QY3      -0.546000
     13 C05        -24.7740    22.1840    18.2660 ca         1 QY3      -0.431500
     14 C06        -25.9030    22.0440    19.1130 ca         1 QY3       0.454000
     15 C07        -26.3110    23.1860    19.8360 ca         1 QY3      -0.231000
     16 C08        -25.6600    24.3900    19.7090 ca         1 QY3       0.077000
     17 C09        -24.5510    24.5040    18.8610 ca         1 QY3      -0.395500
     18 S11        -23.8010    26.0690    18.5800 sy         1 QY3       1.186600
     19 O12        -24.1260    26.9330    19.6900 o          1 QY3      -0.544500
     20 O13        -22.4150    25.8570    18.2300 o          1 QY3      -0.544500
     21 N14        -24.5320    26.7100    17.2460 n3         1 QY3      -0.717500
     22 C16        -24.7270    26.9050    14.8230 c6         1 QY3       0.167300
     23 N17        -26.1390    27.2430    14.9660 n3         1 QY3      -0.732600
     24 C18        -26.6500    27.9830    13.8150 c3         1 QY3       0.243100
     25 C19        -26.6900    27.1410    12.5810 cd         1 QY3      -0.222300
     26 S23        -27.3950    25.5640    12.6180 ss         1 QY3       0.271000
     27 C25        -26.6840    23.6910     9.0710 ca         1 QY3      -0.077000
     28 C27        -27.9540    21.6570     8.8290 ca         1 QY3      -0.083000
     29 C29        -28.3760    23.1500    10.6440 ca         1 QY3       0.166000
     30 F30        -29.1050    23.4360    11.7560 f          1 QY3      -0.182000
     31 C31        -26.3640    27.9510    16.2200 c6         1 QY3       0.167300
     32 C32        -25.9490    27.0870    17.3980 c6         1 QY3       0.188300
     33 N33        -26.5630    20.8690    19.2800 nv         1 QY3      -1.106000
     34 H1         -23.2570    23.4710    17.4940 ha         1 QY3       0.155000
     35 H2         -24.8200    25.0700    15.9330 h1         1 QY3       0.062950
     36 H3         -23.2090    25.8200    15.8860 h1         1 QY3       0.062950
     37 H4         -25.7810    28.3910    11.0800 ha         1 QY3       0.132000
     38 H5         -26.2000    26.4830     9.3400 ha         1 QY3       0.132000
     39 H6         -26.3900    22.2800     7.4910 ha         1 QY3       0.119000
     40 H7         -29.4490    21.3320    10.3600 ha         1 QY3       0.133000
     41 H8         -22.5070    20.2940    18.7940 hn         1 QY3       0.480000
     42 H9         -23.8990    19.3840    19.0590 hn         1 QY3       0.480000
     43 H10        -27.1670    23.0990    20.4930 ha         1 QY3       0.120000
     44 H11        -26.0040    25.2500    20.2650 ha         1 QY3       0.137000
     45 H12        -24.5810    26.3630    13.8890 h1         1 QY3       0.048950
     46 H13        -24.1030    27.8130    14.7880 h1         1 QY3       0.048950
     47 H15        -26.0520    28.8830    13.6000 h1         1 QY3       0.046700
     48 H16        -27.6580    28.3210    14.0710 h1         1 QY3       0.046700
     49 H17        -25.8930    24.3400     8.7220 ha         1 QY3       0.119000
     50 H18        -28.1690    20.7400     8.2980 ha         1 QY3       0.120000
     51 H19        -25.8060    28.9020    16.2520 h1         1 QY3       0.048950
     52 H20        -27.4270    28.1800    16.3120 h1         1 QY3       0.048950
     53 H21        -26.0680    27.6410    18.3250 h1         1 QY3       0.062950
     54 H22        -26.5810    26.1910    17.4340 h1         1 QY3       0.062950
     55 H23        -27.4340    20.8900    19.7860 hn         1 QY3       0.500000
     56 H24        -26.4840    20.1600    18.5670 hn         1 QY3       0.500000
@<TRIPOS>BOND
     1     1    13 ar  
     2     1    17 ar  
     3     1    34 1   
     4     2    21 1   
     5     2    22 1   
     6     2    35 1   
     7     2    36 1   
     8     3     4 1   
     9     3    25 2   
    10     3    37 1   
    11     4     5 2   
    12     4    38 1   
    13     5     6 1   
    14     5    26 1   
    15     6    27 ar  
    16     6    29 ar  
    17     7    27 ar  
    18     7    28 ar  
    19     7    39 1   
    20     8    28 ar  
    21     8    29 ar  
    22     8    40 1   
    23     9    10 1   
    24     9    41 1   
    25     9    42 1   
    26    10    11 2   
    27    10    12 2   
    28    10    13 1   
    29    13    14 ar  
    30    14    15 ar  
    31    14    33 1   
    32    15    16 ar  
    33    15    43 1   
    34    16    17 ar  
    35    16    44 1   
    36    17    18 1   
    37    18    19 2   
    38    18    20 2   
    39    18    21 1   
    40    21    32 1   
    41    22    23 1   
    42    22    45 1   
    43    22    46 1   
    44    23    24 1   
    45    23    31 1   
    46    24    25 1   
    47    24    47 1   
    48    24    48 1   
    49    25    26 1   
    50    27    49 1   
    51    28    50 1   
    52    29    30 1   
    53    31    32 1   
    54    31    51 1   
    55    31    52 1   
    56    32    53 1   
    57    32    54 1   
    58    33    55 1   
    59    33    56 1   
@<TRIPOS>SUBSTRUCTURE
     1 QY3         1 TEMP              0 ****  ****    0 ROOT
