@<TRIPOS>MOLECULE
QY4
   73    76     1     0     0
SMALL
abcg2


@<TRIPOS>ATOM
      1 C10        -19.6560    10.8660   -12.9720 c5         1 QY4      -0.038800
      2 C13        -21.4850    12.3960   -13.0250 c2         1 QY4      -0.097400
      3 C15        -23.9900    12.7720   -12.8920 c3         1 QY4      -0.069400
      4 C17        -25.6550    10.8850   -12.3690 c3         1 QY4      -0.074400
      5 C20        -20.5780    11.8300   -12.2250 ce         1 QY4      -0.081400
      6 C21        -20.4580    12.0230   -10.7610 ca         1 QY4      -0.039800
      7 C22        -21.2440    11.2860    -9.8690 ca         1 QY4      -0.103000
      8 C24        -20.1780    12.3490    -7.9840 ca         1 QY4      -0.109000
      9 C26        -19.5330    12.9310   -10.2340 ca         1 QY4      -0.103000
     10 C01        -18.9550     7.8720   -14.1670 c3         1 QY4       0.213100
     11 C03        -18.0340     8.1140   -11.9110 ca         1 QY4       0.332000
     12 C04        -18.0260     8.6570   -10.6060 ca         1 QY4      -0.188500
     13 C05        -17.0160     8.3470    -9.7080 ca         1 QY4      -0.069500
     14 C06        -15.9680     7.4990   -10.0590 ca         1 QY4      -0.164000
     15 C07        -15.9550     6.9710   -11.3460 ca         1 QY4      -0.069500
     16 C08        -16.9570     7.2710   -12.2590 ca         1 QY4      -0.188500
     17 C09        -20.0320     9.4160   -12.5550 c3         1 QY4       0.241800
     18 C11        -19.9790    11.1940   -14.4700 c5         1 QY4      -0.072700
     19 C12        -21.3210    11.9400   -14.4530 c5         1 QY4      -0.036200
     20 C14        -22.5810    13.3360   -12.6340 c3         1 QY4      -0.032200
     21 C16        -24.2860    11.5070   -12.0890 c3         1 QY4      -0.076400
     22 C18        -26.8440    11.7360   -11.9250 c3         1 QY4      -0.076400
     23 C19        -28.1840    11.0390   -12.1500 c3         1 QY4      -0.089100
     24 C23        -21.1050    11.4460    -8.4940 ca         1 QY4      -0.110500
     25 C25        -19.3950    13.0950    -8.8600 ca         1 QY4      -0.110500
     26 C27        -18.7470    12.0100   -14.9730 c5         1 QY4       0.253500
     27 C33        -17.9590    12.4080   -13.7230 c5         1 QY4      -0.093400
     28 C34        -18.1660    11.2150   -12.7990 c5         1 QY4      -0.065400
     29 N02        -19.0450     8.3830   -12.8130 nh         1 QY4      -0.832400
     30 N28        -19.0510    13.1590   -15.8220 n7         1 QY4      -0.952300
     31 N30        -19.7990    12.0510   -17.9480 n8         1 QY4      -1.032100
     32 O31        -17.4360    12.6510   -17.7360 o          1 QY4      -0.574000
     33 O32        -19.0400    14.5250   -17.8450 o          1 QY4      -0.574000
     34 S29        -18.7390    13.1810   -17.4020 s6         1 QY4       1.311200
     35 H2         -24.7170    13.5500   -12.6480 hc         1 QY4       0.039700
     36 H3         -24.1100    12.5600   -13.9590 hc         1 QY4       0.039700
     37 H4         -25.7120     9.9160   -11.8600 hc         1 QY4       0.036700
     38 H5         -25.7430    10.6730   -13.4410 hc         1 QY4       0.036700
     39 H7         -21.9720    10.5870   -10.2580 ha         1 QY4       0.113500
     40 H8         -20.0690    12.4740    -6.9140 ha         1 QY4       0.114000
     41 H9         -18.9250    13.5190   -10.9090 ha         1 QY4       0.113500
     42 H10        -18.1550     8.3490   -14.7480 h1         1 QY4       0.035033
     43 H11        -18.7790     6.7950   -14.1670 h1         1 QY4       0.035033
     44 H12        -19.9010     8.0540   -14.6730 h1         1 QY4       0.035033
     45 H13        -18.7990     9.3390   -10.2880 ha         1 QY4       0.113000
     46 H14        -17.0490     8.7870    -8.7180 ha         1 QY4       0.107000
     47 H15        -15.1810     7.2660    -9.3540 ha         1 QY4       0.112000
     48 H16        -15.1470     6.3180   -11.6560 ha         1 QY4       0.107000
     49 H17        -16.8950     6.8520   -13.2520 ha         1 QY4       0.113000
     50 H18        -20.2790     9.4000   -11.4970 h1         1 QY4       0.057200
     51 H19        -20.9490     9.1450   -13.0800 h1         1 QY4       0.057200
     52 H20        -20.0580    10.2910   -15.0700 hc         1 QY4       0.061700
     53 H21        -21.3420    12.7760   -15.1570 hc         1 QY4       0.053700
     54 H22        -22.1430    11.2770   -14.7410 hc         1 QY4       0.053700
     55 H23        -22.4700    14.2640   -13.2060 hc         1 QY4       0.052200
     56 H24        -22.4850    13.5970   -11.5780 hc         1 QY4       0.052200
     57 H25        -23.5100    10.7660   -12.3000 hc         1 QY4       0.039700
     58 H26        -24.2030    11.7340   -11.0200 hc         1 QY4       0.039700
     59 H27        -26.8390    12.6900   -12.4600 hc         1 QY4       0.037200
     60 H28        -26.7310    11.9800   -10.8630 hc         1 QY4       0.037200
     61 H29        -29.0200    11.6620   -11.8240 hc         1 QY4       0.031700
     62 H30        -28.3320    10.8080   -13.2080 hc         1 QY4       0.031700
     63 H31        -28.2320    10.0980   -11.5960 hc         1 QY4       0.031700
     64 H32        -21.7250    10.8650    -7.8210 ha         1 QY4       0.114000
     65 H33        -18.6750    13.8060    -8.4730 ha         1 QY4       0.114000
     66 H34        -18.1260    11.3370   -15.5640 h1         1 QY4       0.065700
     67 H35        -16.9130    12.6140   -13.9470 hc         1 QY4       0.053700
     68 H36        -18.3960    13.3120   -13.2890 hc         1 QY4       0.053700
     69 H37        -17.5520    10.3810   -13.1400 hc         1 QY4       0.062200
     70 H38        -17.8940    11.4150   -11.7640 hc         1 QY4       0.062200
     71 H39        -19.1100    14.0760   -15.4030 hn         1 QY4       0.509000
     72 H40        -20.7660    12.3460   -17.8530 hn         1 QY4       0.476500
     73 H41        -19.5820    11.7570   -18.8950 hn         1 QY4       0.476500
@<TRIPOS>BOND
     1     1     5 1   
     2     1    17 1   
     3     1    18 1   
     4     1    28 1   
     5     2     5 2   
     6     2    19 1   
     7     2    20 1   
     8     3    20 1   
     9     3    21 1   
    10     3    35 1   
    11     3    36 1   
    12     4    21 1   
    13     4    22 1   
    14     4    37 1   
    15     4    38 1   
    16     5     6 1   
    17     6     7 ar  
    18     6     9 ar  
    19     7    24 ar  
    20     7    39 1   
    21     8    24 ar  
    22     8    25 ar  
    23     8    40 1   
    24     9    25 ar  
    25     9    41 1   
    26    10    29 1   
    27    10    42 1   
    28    10    43 1   
    29    10    44 1   
    30    11    12 ar  
    31    11    16 ar  
    32    11    29 1   
    33    12    13 ar  
    34    12    45 1   
    35    13    14 ar  
    36    13    46 1   
    37    14    15 ar  
    38    14    47 1   
    39    15    16 ar  
    40    15    48 1   
    41    16    49 1   
    42    17    29 1   
    43    17    50 1   
    44    17    51 1   
    45    18    19 1   
    46    18    26 1   
    47    18    52 1   
    48    19    53 1   
    49    19    54 1   
    50    20    55 1   
    51    20    56 1   
    52    21    57 1   
    53    21    58 1   
    54    22    23 1   
    55    22    59 1   
    56    22    60 1   
    57    23    61 1   
    58    23    62 1   
    59    23    63 1   
    60    24    64 1   
    61    25    65 1   
    62    26    27 1   
    63    26    30 1   
    64    26    66 1   
    65    27    28 1   
    66    27    67 1   
    67    27    68 1   
    68    28    69 1   
    69    28    70 1   
    70    30    34 1   
    71    30    71 1   
    72    31    34 1   
    73    31    72 1   
    74    31    73 1   
    75    32    34 2   
    76    33    34 2   
@<TRIPOS>SUBSTRUCTURE
     1 QY4         1 TEMP              0 ****  ****    0 ROOT
