@<TRIPOS>MOLECULE
QY4
   73    76     1     0     0
SMALL
No Charge or Current Charge


@<TRIPOS>ATOM
      1 C10        -19.7090    10.8700   -12.5550 c5         1 QY4      -0.038800
      2 C13        -21.4650    12.5710   -12.8460 c2         1 QY4      -0.097400
      3 C15        -23.9800    13.0350   -12.9510 c3         1 QY4      -0.069400
      4 C17        -25.7950    11.2360   -12.4520 c3         1 QY4      -0.074400
      5 C20        -20.8030    11.8250   -11.9470 ce         1 QY4      -0.081400
      6 C21        -21.0580    11.9050   -10.4830 ca         1 QY4      -0.039800
      7 C22        -21.7400    10.8670    -9.8200 ca         1 QY4      -0.103000
      8 C24        -21.5520    12.0710    -7.7130 ca         1 QY4      -0.109000
      9 C26        -20.6300    13.0290    -9.7520 ca         1 QY4      -0.103000
     10 C01        -19.3380     7.6090   -13.8580 c3         1 QY4       0.213100
     11 C03        -17.4500     8.3280   -12.3700 ca         1 QY4       0.332000
     12 C04        -17.0700     8.2970   -11.0130 ca         1 QY4      -0.188500
     13 C05        -15.7140     8.2110   -10.6510 ca         1 QY4      -0.069500
     14 C06        -14.7260     8.1530   -11.6460 ca         1 QY4      -0.164000
     15 C07        -15.0920     8.1780   -13.0010 ca         1 QY4      -0.069500
     16 C08        -16.4490     8.2630   -13.3580 ca         1 QY4      -0.188500
     17 C09        -19.7490     9.3680   -12.0660 c3         1 QY4       0.241800
     18 C11        -19.8900    11.0540   -14.1500 c5         1 QY4      -0.072700
     19 C12        -20.9530    12.2390   -14.2510 c5         1 QY4      -0.036200
     20 C14        -22.5760    13.5790   -12.6020 c3         1 QY4      -0.032200
     21 C16        -24.3990    11.8060   -12.1080 c3         1 QY4      -0.076400
     22 C18        -26.9750    12.1770   -12.1130 c3         1 QY4      -0.076400
     23 C19        -28.3500    11.5380   -12.3840 c3         1 QY4      -0.089100
     24 C23        -21.9860    10.9490    -8.4390 ca         1 QY4      -0.110500
     25 C25        -20.8740    13.1120    -8.3700 ca         1 QY4      -0.110500
     26 C27        -18.4530    11.4860   -14.6030 c5         1 QY4       0.253500
     27 C33        -18.0550    12.4820   -13.4870 c5         1 QY4      -0.093400
     28 C34        -18.3540    11.6220   -12.2290 c5         1 QY4      -0.065400
     29 N02        -18.8090     8.4290   -12.7440 nh         1 QY4      -0.832400
     30 N28        -18.4650    12.2170   -15.8990 n7         1 QY4      -0.952300
     31 N30        -20.0670    11.4870   -17.5390 n8         1 QY4      -1.032100
     32 O31        -18.2870     9.8720   -16.8740 o          1 QY4      -0.574000
     33 O32        -17.7880    11.9640   -18.2570 o          1 QY4      -0.574000
     34 S29        -18.5290    11.2660   -17.2200 s6         1 QY4       1.311200
     35 H2         -24.7030    13.8450   -12.8030 hc         1 QY4       0.039700
     36 H3         -24.0120    12.7750   -14.0160 hc         1 QY4       0.039700
     37 H4         -25.9270    10.2960   -11.9020 hc         1 QY4       0.036700
     38 H5         -25.8280    10.9800   -13.5190 hc         1 QY4       0.036700
     39 H7         -22.0890    10.0020   -10.3780 ha         1 QY4       0.113500
     40 H8         -21.7420    12.1340    -6.6430 ha         1 QY4       0.114000
     41 H9         -20.1090    13.8390   -10.2580 ha         1 QY4       0.113500
     42 H10        -19.1050     8.0740   -14.8250 h1         1 QY4       0.035033
     43 H11        -18.8930     6.6050   -13.8370 h1         1 QY4       0.035033
     44 H12        -20.4270     7.4930   -13.7820 h1         1 QY4       0.035033
     45 H13        -17.8220     8.3270   -10.2320 ha         1 QY4       0.113000
     46 H14        -15.4320     8.1860    -9.6010 ha         1 QY4       0.107000
     47 H15        -13.6760     8.0870   -11.3670 ha         1 QY4       0.112000
     48 H16        -14.3270     8.1340   -13.7730 ha         1 QY4       0.107000
     49 H17        -16.7190     8.2930   -14.4090 ha         1 QY4       0.113000
     50 H18        -19.5800     9.3600   -10.9820 h1         1 QY4       0.057200
     51 H19        -20.7780     9.0090   -12.2040 h1         1 QY4       0.057200
     52 H20        -20.2470    10.1500   -14.6530 hc         1 QY4       0.061700
     53 H21        -20.5600    13.1470   -14.7210 hc         1 QY4       0.053700
     54 H22        -21.7920    11.9270   -14.8820 hc         1 QY4       0.053700
     55 H23        -22.3880    14.4790   -13.1980 hc         1 QY4       0.052200
     56 H24        -22.5800    13.9080   -11.5560 hc         1 QY4       0.052200
     57 H25        -23.6630    11.0060   -12.2570 hc         1 QY4       0.039700
     58 H26        -24.3670    12.0660   -11.0430 hc         1 QY4       0.039700
     59 H27        -26.8970    13.0980   -12.7020 hc         1 QY4       0.037200
     60 H28        -26.9180    12.4650   -11.0560 hc         1 QY4       0.037200
     61 H29        -29.1540    12.2400   -12.1320 hc         1 QY4       0.031700
     62 H30        -28.4510    11.2670   -13.4420 hc         1 QY4       0.031700
     63 H31        -28.4840    10.6320   -11.7800 hc         1 QY4       0.031700
     64 H32        -22.5150    10.1450    -7.9320 ha         1 QY4       0.114000
     65 H33        -20.5400    13.9830    -7.8090 ha         1 QY4       0.114000
     66 H34        -17.7560    10.6340   -14.6000 h1         1 QY4       0.065700
     67 H35        -16.9970    12.7640   -13.5440 hc         1 QY4       0.053700
     68 H36        -18.6340    13.4110   -13.4990 hc         1 QY4       0.053700
     69 H37        -17.5320    10.9190   -12.0670 hc         1 QY4       0.062200
     70 H38        -18.3960    12.2280   -11.3180 hc         1 QY4       0.062200
     71 H39        -17.5250    12.5790   -16.0560 hn         1 QY4       0.509000
     72 H40        -20.2110    12.1460   -16.7790 hn         1 QY4       0.476500
     73 H41        -19.9730    12.0720   -18.3620 hn         1 QY4       0.476500
@<TRIPOS>BOND
     1     1     5 1   
     2     1    17 1   
     3     1    18 1   
     4     1    28 1   
     5     2     5 2   
     6     2    19 1   
     7     2    20 1   
     8     3    20 1   
     9     3    21 1   
    10     3    35 1   
    11     3    36 1   
    12     4    21 1   
    13     4    22 1   
    14     4    37 1   
    15     4    38 1   
    16     5     6 1   
    17     6     7 ar  
    18     6     9 ar  
    19     7    24 ar  
    20     7    39 1   
    21     8    24 ar  
    22     8    25 ar  
    23     8    40 1   
    24     9    25 ar  
    25     9    41 1   
    26    10    29 1   
    27    10    42 1   
    28    10    43 1   
    29    10    44 1   
    30    11    12 ar  
    31    11    16 ar  
    32    11    29 1   
    33    12    13 ar  
    34    12    45 1   
    35    13    14 ar  
    36    13    46 1   
    37    14    15 ar  
    38    14    47 1   
    39    15    16 ar  
    40    15    48 1   
    41    16    49 1   
    42    17    29 1   
    43    17    50 1   
    44    17    51 1   
    45    18    19 1   
    46    18    26 1   
    47    18    52 1   
    48    19    53 1   
    49    19    54 1   
    50    20    55 1   
    51    20    56 1   
    52    21    57 1   
    53    21    58 1   
    54    22    23 1   
    55    22    59 1   
    56    22    60 1   
    57    23    61 1   
    58    23    62 1   
    59    23    63 1   
    60    24    64 1   
    61    25    65 1   
    62    26    27 1   
    63    26    30 1   
    64    26    66 1   
    65    27    28 1   
    66    27    67 1   
    67    27    68 1   
    68    28    69 1   
    69    28    70 1   
    70    30    34 1   
    71    30    71 1   
    72    31    34 1   
    73    31    72 1   
    74    31    73 1   
    75    32    34 2   
    76    33    34 2   
@<TRIPOS>SUBSTRUCTURE
     1 QY4         1 TEMP              0 ****  ****    0 ROOT
