@<TRIPOS>MOLECULE
QY5
   60    63     1     0     0
SMALL
bcc


@<TRIPOS>ATOM
      1 C1           9.7950    20.1040     7.2310 c3         1 QY5       0.120000
      2 C2           8.3720    19.8430     7.7110 c3         1 QY5      -0.185400
      3 C7           5.7750    16.0430     9.0720 ca         1 QY5      -0.196200
      4 C8           6.2110    16.7900     7.9690 ca         1 QY5       0.139600
      5 C9           5.8660    16.3070     6.7070 ca         1 QY5      -0.258300
      6 C10          5.1270    15.1450     6.6100 ca         1 QY5       0.445200
      7 C12          5.0220    14.8940     8.8550 ca         1 QY5       0.545800
      8 C13          4.3880    12.6670    11.5390 cc         1 QY5       0.301200
      9 C14          5.2110    13.0770    10.5370 cd         1 QY5      -0.230600
     10 N18          3.2600    13.4430    11.5780 nc         1 QY5      -0.671000
     11 C19         10.2250    24.8730     5.8790 c3         1 QY5      -0.079100
     12 C22          9.9250    22.4770     6.6330 c          1 QY5       0.680100
     13 N23         10.2210    21.4690     7.5120 n          1 QY5      -0.426000
     14 C27         10.1350    22.1430     9.8480 ca         1 QY5      -0.256300
     15 N29         12.1060    22.1960    11.1800 nb         1 QY5      -0.652000
     16 C30         12.8030    21.7860    10.1400 ca         1 QY5       0.533800
     17 C31         16.1770    20.8810    10.7400 cc         1 QY5       0.306200
     18 C32         14.8630    20.5310    10.7490 cd         1 QY5      -0.231600
     19 C35         15.1240    22.6180    10.0660 cd         1 QY5       0.436800
     20 C4           7.8750    18.4750     7.3080 c          1 QY5       0.684100
     21 N5           6.9180    17.9660     8.1490 ns         1 QY5      -0.487100
     22 BR1          6.2080    16.5550    10.8230 br         1 QY5      -0.054100
     23 N11          4.7060    14.4490     7.6570 nb         1 QY5      -0.668000
     24 N15          4.5590    14.1360     9.9510 na         1 QY5      -0.251700
     25 C17          3.3840    14.3190    10.6170 cd         1 QY5       0.435800
     26 O21          9.2990    22.2480     5.6160 o          1 QY5      -0.565100
     27 C25         12.2290    21.5170     8.9000 ca         1 QY5      -0.152200
     28 C26         10.8570    21.7140     8.7440 ca         1 QY5       0.107600
     29 C28         10.8000    22.3680    11.0420 ca         1 QY5       0.435200
     30 N33         14.1950    21.6530    10.3190 na         1 QY5      -0.254700
     31 N36         16.3260    22.1740    10.3150 nc         1 QY5      -0.665000
     32 H1           9.8820    19.9280     6.1620 h1         1 QY5       0.081700
     33 H2          10.4880    19.4220     7.7260 h1         1 QY5       0.081700
     34 H3           8.3030    19.9780     8.7930 hc         1 QY5       0.071700
     35 H4           7.6910    20.5730     7.2650 hc         1 QY5       0.071700
     36 H5           6.1460    16.8350     5.8090 ha         1 QY5       0.174000
     37 H6           4.8500    14.7660     5.6340 h4         1 QY5       0.036100
     38 H7           4.5460    11.8560    12.2320 h4         1 QY5       0.039100
     39 H8           6.1710    12.7320    10.1920 h4         1 QY5       0.180000
     40 H9           1.5570    15.3300    10.9250 hc         1 QY5       0.056367
     41 H10          2.8450    16.3760    10.3290 hc         1 QY5       0.056367
     42 H11          2.0440    15.2570     9.2310 hc         1 QY5       0.056367
     43 H12         10.6090    25.8430     6.1940 hc         1 QY5       0.046367
     44 H13         10.7570    24.5840     4.9730 hc         1 QY5       0.046367
     45 H14          9.1730    24.9980     5.6270 hc         1 QY5       0.046367
     46 H15         11.4810    23.8100     7.2680 hc         1 QY5       0.061200
     47 H16          9.9040    24.1950     7.8970 hc         1 QY5       0.061200
     48 H17          9.0690    22.3100     9.7700 ha         1 QY5       0.156000
     49 H18         17.0230    20.2710    11.0180 h4         1 QY5       0.042100
     50 H19         14.3490    19.6230    11.0150 h4         1 QY5       0.180000
     51 H20         15.6640    24.5670     9.4630 hc         1 QY5       0.057367
     52 H21         14.2550    23.9360     8.6110 hc         1 QY5       0.057367
     53 H22         14.0990    24.4900    10.2750 hc         1 QY5       0.057367
     54 H23          6.7480    18.4770     9.0040 hn         1 QY5       0.334500
     55 H24         10.2580    22.7030    11.9170 h4         1 QY5       0.039100
     56 C34         14.7610    23.9730     9.5780 c3         1 QY5      -0.126400
     57 C20         10.4240    23.8610     6.9940 c3         1 QY5      -0.153400
     58 O3           8.2680    17.8920     6.3220 o          1 QY5      -0.551100
     59 BR2         13.2750    20.9430     7.4630 br         1 QY5      -0.018100
     60 C16          2.4090    15.3790    10.2520 c3         1 QY5      -0.124400
@<TRIPOS>BOND
     1     1     2 1   
     2     1    13 1   
     3     1    32 1   
     4     1    33 1   
     5     2    20 1   
     6     2    34 1   
     7     2    35 1   
     8     3     4 ar  
     9     3     7 ar  
    10     3    22 1   
    11     4     5 ar  
    12     4    21 1   
    13     5     6 ar  
    14     5    36 1   
    15     6    23 ar  
    16     6    37 1   
    17     7    23 ar  
    18     7    24 1   
    19     8     9 2   
    20     8    10 1   
    21     8    38 1   
    22     9    24 1   
    23     9    39 1   
    24    10    25 2   
    25    11    43 1   
    26    11    44 1   
    27    11    45 1   
    28    11    57 1   
    29    12    13 1   
    30    12    26 2   
    31    12    57 1   
    32    13    28 1   
    33    14    28 ar  
    34    14    29 ar  
    35    14    48 1   
    36    15    16 ar  
    37    15    29 ar  
    38    16    27 ar  
    39    16    30 1   
    40    17    18 2   
    41    17    31 1   
    42    17    49 1   
    43    18    30 1   
    44    18    50 1   
    45    19    30 1   
    46    19    31 2   
    47    19    56 1   
    48    20    21 1   
    49    20    58 2   
    50    21    54 1   
    51    24    25 1   
    52    25    60 1   
    53    27    28 ar  
    54    27    59 1   
    55    29    55 1   
    56    40    60 1   
    57    41    60 1   
    58    42    60 1   
    59    46    57 1   
    60    47    57 1   
    61    51    56 1   
    62    52    56 1   
    63    53    56 1   
@<TRIPOS>SUBSTRUCTURE
     1 QY5         1 TEMP              0 ****  ****    0 ROOT
