@<TRIPOS>MOLECULE
QY5
   60    63     1     0     0
SMALL
No Charge or Current Charge


@<TRIPOS>ATOM
      1 C1           9.1890    20.5490     6.7100 c3         1 QY5       0.120000
      2 C2           7.7120    20.5080     7.1490 c3         1 QY5      -0.185400
      3 C7           6.2650    16.3160     9.0650 ca         1 QY5      -0.130900
      4 C8           6.2550    17.0150     7.8410 ca         1 QY5       0.047000
      5 C9           5.6570    16.3820     6.7380 ca         1 QY5      -0.175000
      6 C10          5.1100    15.1050     6.8960 ca         1 QY5       0.379900
      7 C12          5.6890    15.0210     9.1520 ca         1 QY5       0.480500
      8 C13          5.5750    12.4380    11.3120 cc         1 QY5       0.235900
      9 C14          6.3520    13.1560    10.4390 cd         1 QY5      -0.198000
     10 N18          4.4550    13.1400    11.6890 nc         1 QY5      -0.671000
     11 C19         11.0870    25.1860     5.6500 c3         1 QY5      -0.079100
     12 C22         10.0280    22.8640     6.2420 c          1 QY5       0.613100
     13 N23          9.8740    21.7860     7.1500 n          1 QY5      -0.266400
     14 C27          9.7530    22.5250     9.4850 ca         1 QY5      -0.173000
     15 N29         11.5190    22.0340    11.0560 nb         1 QY5      -0.652000
     16 C30         12.1960    21.3660    10.0880 ca         1 QY5       0.468500
     17 C31         14.7280    20.1220    11.9290 cc         1 QY5       0.240900
     18 C32         13.5150    19.8630    11.3430 cd         1 QY5      -0.199000
     19 C35         14.4820    21.6850    10.4680 cd         1 QY5       0.436800
     20 C4           7.0640    19.1880     6.7350 c          1 QY5       0.617100
     21 N5           6.8360    18.3110     7.7840 ns         1 QY5      -0.161000
     22 Br1          7.0740    17.1360    10.6190 br         1 QY5      -0.054100
     23 N11          5.1220    14.4390     8.0680 nb         1 QY5      -0.668000
     24 N15          5.7320    14.3930    10.3940 na         1 QY5      -0.201000
     25 C17          4.5240    14.2990    11.0490 cd         1 QY5       0.435800
     26 O21          9.5410    22.8250     5.1170 o          1 QY5      -0.565100
     27 C25         11.6650    21.2430     8.7780 ca         1 QY5      -0.086900
     28 C26         10.4060    21.8010     8.4800 ca         1 QY5       0.015000
     29 C28         10.3310    22.6010    10.7560 ca         1 QY5       0.369900
     30 N33         13.4430    20.7920    10.3200 na         1 QY5      -0.204000
     31 N36         15.3230    21.2390    11.3900 nc         1 QY5      -0.665000
     32 H1           9.2590    20.4410     5.6190 h1         1 QY5       0.081700
     33 H2           9.7130    19.6880     7.1470 h1         1 QY5       0.081700
     34 H3           7.6670    20.6280     8.2380 hc         1 QY5       0.071700
     35 H4           7.1830    21.3340     6.6580 hc         1 QY5       0.071700
     36 H5           5.5970    16.8480     5.7610 ha         1 QY5       0.156000
     37 H6           4.6410    14.5960     6.0550 h4         1 QY5       0.036100
     38 H7           5.7280    11.4260    11.6640 h4         1 QY5       0.039100
     39 H8           7.2480    12.8920     9.8890 h4         1 QY5       0.162000
     40 H9           2.7700    15.1800    11.9480 hc         1 QY5       0.056367
     41 H10          3.8870    16.3510    11.2300 hc         1 QY5       0.056367
     42 H11          2.8570    15.3540    10.1860 hc         1 QY5       0.056367
     43 H12         11.6680    26.0110     6.0800 hc         1 QY5       0.046367
     44 H13         11.6490    24.7790     4.8010 hc         1 QY5       0.046367
     45 H14         10.1400    25.5930     5.2770 hc         1 QY5       0.046367
     46 H15         11.7730    23.7390     7.1560 hc         1 QY5       0.061200
     47 H16         10.3290    24.5070     7.5940 hc         1 QY5       0.061200
     48 H17          8.8020    23.0140     9.2940 ha         1 QY5       0.138000
     49 H18         15.1990    19.5960    12.7500 h4         1 QY5       0.042100
     50 H19         12.7520    19.1260    11.5650 h4         1 QY5       0.162000
     51 H20         15.7340    23.2960     9.7610 hc         1 QY5       0.057367
     52 H21         14.4780    22.7940     8.6190 hc         1 QY5       0.057367
     53 H22         14.0450    23.7510    10.0480 hc         1 QY5       0.057367
     54 H23          7.1460    18.6560     8.6840 hn         1 QY5       0.168000
     55 H24          9.8340    23.1420    11.5610 h4         1 QY5       0.039100
     56 C34         14.6970    22.9500     9.6810 c3         1 QY5      -0.126400
     57 C20         10.8340    24.0930     6.7140 c3         1 QY5      -0.153400
     58 O3           6.7670    18.9620     5.5690 o          1 QY5      -0.551100
     59 Br2         12.6640    20.3410     7.3920 br         1 QY5      -0.018100
     60 C16          3.4510    15.3530    11.1070 c3         1 QY5      -0.124400
@<TRIPOS>BOND
     1     1     2 1   
     2     1    13 1   
     3     1    32 1   
     4     1    33 1   
     5     2    20 1   
     6     2    34 1   
     7     2    35 1   
     8     3     4 ar  
     9     3     7 ar  
    10     3    22 1   
    11     4     5 ar  
    12     4    21 1   
    13     5     6 ar  
    14     5    36 1   
    15     6    23 ar  
    16     6    37 1   
    17     7    23 ar  
    18     7    24 1   
    19     8     9 2   
    20     8    10 1   
    21     8    38 1   
    22     9    24 1   
    23     9    39 1   
    24    10    25 2   
    25    11    43 1   
    26    11    44 1   
    27    11    45 1   
    28    11    57 1   
    29    12    13 1   
    30    12    26 2   
    31    12    57 1   
    32    13    28 1   
    33    14    28 ar  
    34    14    29 ar  
    35    14    48 1   
    36    15    16 ar  
    37    15    29 ar  
    38    16    27 ar  
    39    16    30 1   
    40    17    18 2   
    41    17    31 1   
    42    17    49 1   
    43    18    30 1   
    44    18    50 1   
    45    19    30 1   
    46    19    31 2   
    47    19    56 1   
    48    20    21 1   
    49    20    58 2   
    50    21    54 1   
    51    24    25 1   
    52    25    60 1   
    53    27    28 ar  
    54    27    59 1   
    55    29    55 1   
    56    40    60 1   
    57    41    60 1   
    58    42    60 1   
    59    46    57 1   
    60    47    57 1   
    61    51    56 1   
    62    52    56 1   
    63    53    56 1   
@<TRIPOS>SUBSTRUCTURE
     1 QY5         1 TEMP              0 ****  ****    0 ROOT
