@<TRIPOS>MOLECULE
QY6
   47    51     1     0     0
SMALL
No Charge or Current Charge


@<TRIPOS>ATOM
      1 N1         -20.4360     5.0800    26.7560 n          1 QY6      -0.251400
      2 C4         -21.5760     7.4360    29.9360 c6         1 QY6       0.202800
      3 C5         -22.3290     6.6250    28.8630 c6         1 QY6      -0.074400
      4 C6         -21.8990     5.1120    28.8660 c6         1 QY6      -0.052700
      5 C7         -22.9810     4.3570    28.0160 c6         1 QY6      -0.069400
      6 C8         -22.9160     4.7200    26.5160 c6         1 QY6      -0.092400
      7 C10        -20.4970     4.9960    28.1730 c          1 QY6       0.565000
      8 C13        -16.5900     5.3350    25.0670 ca         1 QY6       0.363900
      9 C15        -16.2080     7.5470    26.0340 ca         1 QY6      -0.080000
     10 C17        -17.9810     8.6360    27.2910 ca         1 QY6      -0.092000
     11 C20        -21.8150     4.5590    30.3220 ca         1 QY6      -0.123300
     12 C21        -21.6950     3.1700    30.5650 ca         1 QY6      -0.054000
     13 O          -19.4740     4.8550    28.8340 o          1 QY6      -0.543000
     14 N          -21.8570     6.8210    31.2370 nu         1 QY6      -0.940200
     15 C3         -21.7920     5.4430    31.4310 ca         1 QY6       0.329000
     16 C2         -21.6990     4.9450    32.7400 ca         1 QY6      -0.176000
     17 C1         -21.6080     3.5620    32.9670 ca         1 QY6      -0.053000
     18 C          -21.5990     2.6790    31.8770 ca         1 QY6       0.077000
     19 Cl         -21.4580     0.9480    32.1550 cl         1 QY6      -0.222000
     20 C9         -21.5090     4.4240    25.9690 c6         1 QY6       0.116000
     21 C11        -19.1810     5.2930    26.0620 ca         1 QY6      -0.084000
     22 C19        -18.3590     6.4170    26.3350 ca         1 QY6      -0.003000
     23 C18        -18.8220     7.5330    27.0660 ca         1 QY6      -0.097000
     24 C16        -16.6740     8.6420    26.7780 ca         1 QY6      -0.111000
     25 C14        -17.0480     6.4380    25.8100 ca         1 QY6      -0.095000
     26 N2         -17.3380     4.2320    24.8500 nb         1 QY6      -0.655000
     27 C12        -18.5890     4.2120    25.3640 ca         1 QY6       0.333900
     28 H2         -21.9000     8.4880    29.9160 h1         1 QY6       0.052200
     29 H3         -22.1580     7.0880    27.8830 hc         1 QY6       0.054700
     30 H4         -23.4070     6.7170    29.0590 hc         1 QY6       0.054700
     31 H5         -23.9890     4.5550    28.4090 hc         1 QY6       0.057700
     32 H6         -22.8470     3.2710    28.0970 hc         1 QY6       0.057700
     33 H7         -23.1780     5.7720    26.3460 hc         1 QY6       0.054700
     34 H8         -23.6560     4.1300    25.9580 hc         1 QY6       0.054700
     35 H9         -15.5850     5.3240    24.6460 h4         1 QY6       0.021100
     36 H10        -15.1960     7.5600    25.6330 ha         1 QY6       0.118000
     37 H11        -18.3470     9.4910    27.8560 ha         1 QY6       0.114000
     38 H12        -21.6580     2.4620    29.7430 ha         1 QY6       0.122000
     39 H13        -21.7860     7.3990    32.0770 hn         1 QY6       0.467000
     40 H14        -21.6910     5.6290    33.5840 ha         1 QY6       0.116000
     41 H15        -21.5330     3.1770    33.9810 ha         1 QY6       0.128000
     42 H16        -21.3420     3.3380    25.9820 h1         1 QY6       0.047200
     43 H17        -21.4510     4.7560    24.9230 h1         1 QY6       0.047200
     44 H18        -19.8380     7.5660    27.4450 ha         1 QY6       0.119000
     45 H19        -16.0260     9.4980    26.9510 ha         1 QY6       0.117000
     46 H20        -19.1360     3.2820    25.2150 h4         1 QY6       0.027100
     47 H1         -20.4960     7.4150    29.7270 h1         1 QY6       0.052200
@<TRIPOS>BOND
     1     1     7 1   
     2     1    20 1   
     3     1    21 1   
     4     2     3 1   
     5     2    14 1   
     6     2    28 1   
     7     2    47 1   
     8     3     4 1   
     9     3    29 1   
    10     3    30 1   
    11     4     5 1   
    12     4     7 1   
    13     4    11 1   
    14     5     6 1   
    15     5    31 1   
    16     5    32 1   
    17     6    20 1   
    18     6    33 1   
    19     6    34 1   
    20     7    13 2   
    21     8    25 ar  
    22     8    26 ar  
    23     8    35 1   
    24     9    24 ar  
    25     9    25 ar  
    26     9    36 1   
    27    10    23 ar  
    28    10    24 ar  
    29    10    37 1   
    30    11    12 ar  
    31    11    15 ar  
    32    12    18 ar  
    33    12    38 1   
    34    14    15 1   
    35    14    39 1   
    36    15    16 ar  
    37    16    17 ar  
    38    16    40 1   
    39    17    18 ar  
    40    17    41 1   
    41    18    19 1   
    42    20    42 1   
    43    20    43 1   
    44    21    22 ar  
    45    21    27 ar  
    46    22    23 ar  
    47    22    25 ar  
    48    23    44 1   
    49    24    45 1   
    50    26    27 ar  
    51    27    46 1   
@<TRIPOS>SUBSTRUCTURE
     1 QY6         1 TEMP              0 ****  ****    0 ROOT
