@<TRIPOS>MOLECULE
QY6
   47    51     1     0     0
SMALL
abcg2


@<TRIPOS>ATOM
      1 N1         -20.2640     5.1120    27.1080 n          1 QY6      -0.251400
      2 C4         -21.5610     7.3090    30.5130 c6         1 QY6       0.202800
      3 C5         -22.2030     6.7440    29.2620 c6         1 QY6      -0.074400
      4 C6         -21.8580     5.2480    29.0190 c6         1 QY6      -0.052700
      5 C7         -22.8820     4.6630    28.0270 c6         1 QY6      -0.069400
      6 C8         -22.6980     5.2490    26.6370 c6         1 QY6      -0.092400
      7 C10        -20.4270     5.2120    28.4540 c          1 QY6       0.565000
      8 C13        -16.4180     5.0560    25.5330 ca         1 QY6       0.363900
      9 C15        -16.3720     7.5260    25.3240 ca         1 QY6      -0.080000
     10 C17        -18.3050     8.7820    26.0400 ca         1 QY6      -0.092000
     11 C20        -21.8740     4.4800    30.3390 ca         1 QY6      -0.123300
     12 C21        -21.8070     3.0870    30.3300 ca         1 QY6      -0.054000
     13 O          -19.4550     5.3360    29.2000 o          1 QY6      -0.543000
     14 N          -21.9900     6.5230    31.6590 nu         1 QY6      -0.940200
     15 C3         -21.9230     5.1460    31.5800 ca         1 QY6       0.329000
     16 C2         -21.9380     4.3870    32.7630 ca         1 QY6      -0.176000
     17 C1         -21.8860     3.0060    32.7370 ca         1 QY6      -0.053000
     18 C          -21.8130     2.3620    31.5090 ca         1 QY6       0.077000
     19 CL         -21.7220     0.6070    31.4480 cl         1 QY6      -0.222000
     20 C9         -21.3250     4.8800    26.1110 c6         1 QY6       0.116000
     21 C11        -18.9330     5.1420    26.5870 ca         1 QY6      -0.084000
     22 C19        -18.3360     6.3790    26.2380 ca         1 QY6      -0.003000
     23 C18        -18.9630     7.6340    26.4050 ca         1 QY6      -0.097000
     24 C16        -17.0020     8.7320    25.4960 ca         1 QY6      -0.111000
     25 C14        -17.0240     6.3260    25.6900 ca         1 QY6      -0.095000
     26 N2         -16.9940     3.9220    25.8610 nb         1 QY6      -0.655000
     27 C12        -18.2460     3.9750    26.3850 ca         1 QY6       0.333900
     28 H2         -21.8840     8.3390    30.6620 h1         1 QY6       0.052200
     29 H3         -21.9070     7.3420    28.4000 hc         1 QY6       0.054700
     30 H4         -23.2890     6.8230    29.3560 hc         1 QY6       0.054700
     31 H5         -23.8850     4.8590    28.4120 hc         1 QY6       0.057700
     32 H6         -22.7700     3.5790    27.9630 hc         1 QY6       0.057700
     33 H7         -22.8170     6.3330    26.6500 hc         1 QY6       0.054700
     34 H8         -23.4470     4.8510    25.9510 hc         1 QY6       0.054700
     35 H9         -15.4160     5.0040    25.1160 h4         1 QY6       0.021100
     36 H10        -15.3720     7.4740    24.9090 ha         1 QY6       0.118000
     37 H11        -18.7880     9.7420    26.1700 ha         1 QY6       0.114000
     38 H12        -21.7370     2.5580    29.3900 ha         1 QY6       0.122000
     39 H13        -21.7360     6.9030    32.5590 hn         1 QY6       0.467000
     40 H14        -21.9840     4.9040    33.7150 ha         1 QY6       0.116000
     41 H15        -21.8920     2.4390    33.6580 ha         1 QY6       0.128000
     42 H16        -21.2990     3.8250    25.8230 h1         1 QY6       0.047200
     43 H17        -21.0740     5.4690    25.2280 h1         1 QY6       0.047200
     44 H18        -19.9600     7.6800    26.8200 ha         1 QY6       0.119000
     45 H19        -16.5040     9.6520    25.2170 ha         1 QY6       0.117000
     46 H20        -18.7020     3.0290    26.6520 h4         1 QY6       0.027100
     47 H1         -20.4700     7.3060    30.4090 h1         1 QY6       0.052200
@<TRIPOS>BOND
     1     1     7 1   
     2     1    20 1   
     3     1    21 1   
     4     2     3 1   
     5     2    14 1   
     6     2    28 1   
     7     2    47 1   
     8     3     4 1   
     9     3    29 1   
    10     3    30 1   
    11     4     5 1   
    12     4     7 1   
    13     4    11 1   
    14     5     6 1   
    15     5    31 1   
    16     5    32 1   
    17     6    20 1   
    18     6    33 1   
    19     6    34 1   
    20     7    13 2   
    21     8    25 ar  
    22     8    26 ar  
    23     8    35 1   
    24     9    24 ar  
    25     9    25 ar  
    26     9    36 1   
    27    10    23 ar  
    28    10    24 ar  
    29    10    37 1   
    30    11    12 ar  
    31    11    15 ar  
    32    12    18 ar  
    33    12    38 1   
    34    14    15 1   
    35    14    39 1   
    36    15    16 ar  
    37    16    17 ar  
    38    16    40 1   
    39    17    18 ar  
    40    17    41 1   
    41    18    19 1   
    42    20    42 1   
    43    20    43 1   
    44    21    22 ar  
    45    21    27 ar  
    46    22    23 ar  
    47    22    25 ar  
    48    23    44 1   
    49    24    45 1   
    50    26    27 ar  
    51    27    46 1   
@<TRIPOS>SUBSTRUCTURE
     1 QY6         1 TEMP              0 ****  ****    0 ROOT
