@<TRIPOS>MOLECULE
QY7
   65    67     1     0     0
SMALL
No Charge or Current Charge


@<TRIPOS>ATOM
      1 C7         -91.7920     5.8050    25.7710 ca         1 QY7      -0.069000
      2 C6         -94.7320     5.8670    31.3310 ca         1 QY7      -0.108000
      3 C1         -94.0220     6.8060    25.7230 ca         1 QY7      -0.113000
      4 C5         -97.0530     5.9380    30.6080 ca         1 QY7      -0.108000
      5 C4         -94.5260     5.7570    26.5210 ca         1 QY7      -0.107000
      6 C3         -94.4550     4.9000    30.3490 ca         1 QY7      -0.091000
      7 C2         -96.7780     4.9720    29.6240 ca         1 QY7      -0.091000
      8 C8         -92.3220     4.7920    26.5800 ca         1 QY7      -0.054800
      9 C9         -95.4760     4.4500    29.4840 ca         1 QY7      -0.081300
     10 C10        -92.6550     6.8380    25.3390 ca         1 QY7      -0.113300
     11 C11        -93.6400     4.7510    26.9370 ca         1 QY7      -0.055200
     12 C12        -91.7150     3.6360    27.1600 cc         1 QY7      -0.096600
     13 C13        -96.0300     6.3860    31.4590 ca         1 QY7       0.113000
     14 C14        -92.6990     2.8670    27.7780 cd         1 QY7       0.074700
     15 C15        -94.4360     0.3420    27.2370 c          1 QY7       0.710000
     16 C16        -92.2110     9.3340    25.1870 c3         1 QY7      -0.081600
     17 C17        -92.7970     8.0030    23.0840 c3         1 QY7      -0.081600
     18 C18        -92.0010     0.1730    26.4030 c3         1 QY7      -0.059600
     19 C19        -92.6750    -0.9950    28.5250 c3         1 QY7      -0.059600
     20 C20        -89.2350     5.5680    28.0480 c3         1 QY7      -0.076100
     21 C21        -89.8210     3.7710    29.7510 c3         1 QY7      -0.076100
     22 C22        -87.6960     3.5840    28.3790 c3         1 QY7      -0.076100
     23 C24        -92.5610     1.5370    28.5000 c3         1 QY7      -0.022200
     24 C25        -92.1110     7.9710    24.4670 c3         1 QY7      -0.007400
     25 C26        -92.9270     0.2720    27.6540 c3         1 QY7      -0.167000
     26 C27        -89.1680     4.0580    28.3770 c3         1 QY7       0.082000
     27 N28        -93.9080     3.6140    27.7010 na         1 QY7      -0.053700
     28 O29        -95.2800    -0.0250    28.0420 o          1 QY7      -0.729000
     29 O30        -94.7260     0.6450    26.0880 o          1 QY7      -0.729000
     30 S31        -90.0460     3.0750    27.0630 ss         1 QY7      -0.323600
     31 Cl1        -96.3750     7.5950    32.6880 cl         1 QY7      -0.232000
     32 H1         -90.7430     5.7910    25.4870 ha         1 QY7       0.112000
     33 H2         -93.9420     6.2130    31.9930 ha         1 QY7       0.120500
     34 H3         -94.6980     7.5930    25.3970 ha         1 QY7       0.096000
     35 H4         -98.0580     6.3400    30.7100 ha         1 QY7       0.120500
     36 H5         -95.5770     5.7350    26.7990 ha         1 QY7       0.112000
     37 H6         -93.4450     4.5050    30.2610 ha         1 QY7       0.124000
     38 H7         -97.5780     4.6320    28.9700 ha         1 QY7       0.124000
     39 H8         -91.6950     9.2950    26.1540 hc         1 QY7       0.028367
     40 H9         -91.7450    10.1240    24.5850 hc         1 QY7       0.028367
     41 H10        -93.2560     9.6120    25.3660 hc         1 QY7       0.028367
     42 H11        -92.6950     7.0330    22.5830 hc         1 QY7       0.028367
     43 H12        -93.8660     8.2320    23.1760 hc         1 QY7       0.028367
     44 H13        -92.3390     8.7660    22.4430 hc         1 QY7       0.028367
     45 H14        -90.9470     0.1090    26.7000 hc         1 QY7       0.020867
     46 H15        -92.2380    -0.7220    25.8150 hc         1 QY7       0.020867
     47 H16        -92.1120     1.0450    25.7480 hc         1 QY7       0.020867
     48 H17        -93.2420    -0.9570    29.4640 hc         1 QY7       0.020867
     49 H18        -92.9730    -1.9030    27.9860 hc         1 QY7       0.020867
     50 H19        -91.6140    -1.0900    28.7850 hc         1 QY7       0.020867
     51 H20        -88.6310     6.1450    28.7590 hc         1 QY7       0.035589
     52 H21        -88.8520     5.7670    27.0400 hc         1 QY7       0.035589
     53 H22        -90.2630     5.9430    28.1120 hc         1 QY7       0.035589
     54 H23        -89.2920     4.3050    30.5500 hc         1 QY7       0.035589
     55 H24        -90.8670     4.0960    29.7690 hc         1 QY7       0.035589
     56 H25        -89.7890     2.7000    29.9820 hc         1 QY7       0.035589
     57 H26        -87.1140     4.1170    29.1410 hc         1 QY7       0.035589
     58 H27        -87.6320     2.5100    28.5920 hc         1 QY7       0.035589
     59 H28        -87.2260     3.7650    27.4050 hc         1 QY7       0.035589
     60 H29        -95.9900     3.3960    27.6650 h1         1 QY7       0.111700
     61 H30        -95.1820     2.4180    28.8860 h1         1 QY7       0.111700
     62 H31        -91.5330     1.4260    28.8610 hc         1 QY7       0.048700
     63 H32        -93.1730     1.5490    29.4090 hc         1 QY7       0.048700
     64 H33        -91.0440     7.7920    24.2830 hc         1 QY7       0.041700
     65 C23        -95.1860     3.4030    28.4100 c3         1 QY7       0.093900
@<TRIPOS>BOND
     1     1     8 ar  
     2     1    10 ar  
     3     1    32 1   
     4     2     6 ar  
     5     2    13 ar  
     6     2    33 1   
     7     3     5 ar  
     8     3    10 ar  
     9     3    34 1   
    10     4     7 ar  
    11     4    13 ar  
    12     4    35 1   
    13     5    11 ar  
    14     5    36 1   
    15     6     9 ar  
    16     6    37 1   
    17     7     9 ar  
    18     7    38 1   
    19     8    11 ar  
    20     8    12 1   
    21     9    65 1   
    22    10    24 1   
    23    11    27 1   
    24    12    14 2   
    25    12    30 1   
    26    13    31 1   
    27    14    23 1   
    28    14    27 1   
    29    15    25 1   
    30    15    28 1   
    31    15    29 1   
    32    16    24 1   
    33    16    39 1   
    34    16    40 1   
    35    16    41 1   
    36    17    24 1   
    37    17    42 1   
    38    17    43 1   
    39    17    44 1   
    40    18    25 1   
    41    18    45 1   
    42    18    46 1   
    43    18    47 1   
    44    19    25 1   
    45    19    48 1   
    46    19    49 1   
    47    19    50 1   
    48    20    26 1   
    49    20    51 1   
    50    20    52 1   
    51    20    53 1   
    52    21    26 1   
    53    21    54 1   
    54    21    55 1   
    55    21    56 1   
    56    22    26 1   
    57    22    57 1   
    58    22    58 1   
    59    22    59 1   
    60    23    25 1   
    61    23    62 1   
    62    23    63 1   
    63    24    64 1   
    64    26    30 1   
    65    27    65 1   
    66    60    65 1   
    67    61    65 1   
@<TRIPOS>SUBSTRUCTURE
     1 QY7         1 TEMP              0 ****  ****    0 ROOT
