@<TRIPOS>MOLECULE
QY7
   65    67     1     0     0
SMALL
abcg2


@<TRIPOS>ATOM
      1 C7         -91.7870     5.8280    25.7480 ca         1 QY7      -0.069000
      2 C6         -94.7670     5.8110    31.2180 ca         1 QY7      -0.108000
      3 C1         -93.9990     6.7830    25.6760 ca         1 QY7      -0.113000
      4 C5         -97.0620     5.8510    30.4770 ca         1 QY7      -0.108000
      5 C4         -94.5180     5.7640    26.4510 ca         1 QY7      -0.107000
      6 C3         -94.4690     4.8930    30.2240 ca         1 QY7      -0.091000
      7 C2         -96.7440     4.9330    29.4860 ca         1 QY7      -0.091000
      8 C8         -92.2820     4.7880    26.5390 ca         1 QY7      -0.054800
      9 C9         -95.4520     4.4400    29.3480 ca         1 QY7      -0.081300
     10 C10        -92.6380     6.8300    25.3140 ca         1 QY7      -0.113300
     11 C11        -93.6440     4.7660    26.8740 ca         1 QY7      -0.055200
     12 C12        -91.6970     3.6320    27.1490 cc         1 QY7      -0.096600
     13 C13        -96.0670     6.2810    31.3380 ca         1 QY7       0.113000
     14 C14        -92.7090     2.9480    27.7950 cd         1 QY7       0.074700
     15 C15        -94.5030     0.3220    27.4980 c          1 QY7       0.710000
     16 C16        -92.2190     9.3030    25.2270 c3         1 QY7      -0.081600
     17 C17        -92.8130     8.0610    23.1200 c3         1 QY7      -0.081600
     18 C18        -92.1770     0.2860    26.4530 c3         1 QY7      -0.059600
     19 C19        -92.5620    -0.8080    28.6460 c3         1 QY7      -0.059600
     20 C20        -89.2620     5.5030    28.2550 c3         1 QY7      -0.076100
     21 C21        -89.6910     3.5320    29.7330 c3         1 QY7      -0.076100
     22 C22        -87.6940     3.5500    28.2270 c3         1 QY7      -0.076100
     23 C24        -92.6070     1.6590    28.5350 c3         1 QY7      -0.022200
     24 C25        -92.1130     7.9750    24.4770 c3         1 QY7      -0.007400
     25 C26        -92.9700     0.3670    27.7520 c3         1 QY7      -0.167000
     26 C27        -89.1450     3.9930    28.3910 c3         1 QY7       0.082000
     27 N28        -93.8810     3.6450    27.6330 na         1 QY7      -0.053700
     28 O29        -95.2180     0.0570    28.4910 o          1 QY7      -0.729000
     29 O30        -94.9100     0.5760    26.3480 o          1 QY7      -0.729000
     30 S31        -90.0300     3.1340    27.0090 ss         1 QY7      -0.323600
     31 CL1        -96.4510     7.4270    32.5820 cl         1 QY7      -0.232000
     32 H1         -90.7370     5.8500    25.4790 ha         1 QY7       0.112000
     33 H2         -93.9930     6.1540    31.8920 ha         1 QY7       0.120500
     34 H3         -94.6660     7.5670    25.3390 ha         1 QY7       0.096000
     35 H4         -98.0720     6.2270    30.5690 ha         1 QY7       0.120500
     36 H5         -95.5690     5.7520    26.7130 ha         1 QY7       0.112000
     37 H6         -93.4500     4.5330    30.1360 ha         1 QY7       0.124000
     38 H7         -97.5210     4.6050    28.8060 ha         1 QY7       0.124000
     39 H8         -91.6870     9.2640    26.1780 hc         1 QY7       0.028367
     40 H9         -91.7940    10.1170    24.6370 hc         1 QY7       0.028367
     41 H10        -93.2600     9.5560    25.4370 hc         1 QY7       0.028367
     42 H11        -92.7230     7.1270    22.5640 hc         1 QY7       0.028367
     43 H12        -93.8760     8.2810    23.2330 hc         1 QY7       0.028367
     44 H13        -92.3770     8.8550    22.5120 hc         1 QY7       0.028367
     45 H14        -91.1040     0.3130    26.6530 hc         1 QY7       0.020867
     46 H15        -92.3940    -0.6480    25.9300 hc         1 QY7       0.020867
     47 H16        -92.4030     1.1040    25.7700 hc         1 QY7       0.020867
     48 H17        -93.0560    -0.7660    29.6160 hc         1 QY7       0.020867
     49 H18        -92.8180    -1.7630    28.1830 hc         1 QY7       0.020867
     50 H19        -91.4830    -0.8050    28.8180 hc         1 QY7       0.020867
     51 H20        -88.6940     5.9890    29.0520 hc         1 QY7       0.035589
     52 H21        -88.8680     5.8490    27.2990 hc         1 QY7       0.035589
     53 H22        -90.2980     5.8310    28.3370 hc         1 QY7       0.035589
     54 H23        -89.1540     4.0290    30.5440 hc         1 QY7       0.035589
     55 H24        -90.7500     3.7760    29.8380 hc         1 QY7       0.035589
     56 H25        -89.5740     2.4550    29.8600 hc         1 QY7       0.035589
     57 H26        -87.0810     4.0040    29.0080 hc         1 QY7       0.035589
     58 H27        -87.5930     2.4670    28.3120 hc         1 QY7       0.035589
     59 H28        -87.2850     3.8570    27.2620 hc         1 QY7       0.035589
     60 H29        -95.9410     3.3970    27.5400 h1         1 QY7       0.111700
     61 H30        -95.1360     2.4170    28.7330 h1         1 QY7       0.111700
     62 H31        -91.5670     1.5650    28.8520 hc         1 QY7       0.048700
     63 H32        -93.2020     1.6930    29.4510 hc         1 QY7       0.048700
     64 H33        -91.0520     7.7820    24.2910 hc         1 QY7       0.041700
     65 C23        -95.1460     3.4110    28.2880 c3         1 QY7       0.093900
@<TRIPOS>BOND
     1     1     8 ar  
     2     1    10 ar  
     3     1    32 1   
     4     2     6 ar  
     5     2    13 ar  
     6     2    33 1   
     7     3     5 ar  
     8     3    10 ar  
     9     3    34 1   
    10     4     7 ar  
    11     4    13 ar  
    12     4    35 1   
    13     5    11 ar  
    14     5    36 1   
    15     6     9 ar  
    16     6    37 1   
    17     7     9 ar  
    18     7    38 1   
    19     8    11 ar  
    20     8    12 1   
    21     9    65 1   
    22    10    24 1   
    23    11    27 1   
    24    12    14 2   
    25    12    30 1   
    26    13    31 1   
    27    14    23 1   
    28    14    27 1   
    29    15    25 1   
    30    15    28 1   
    31    15    29 1   
    32    16    24 1   
    33    16    39 1   
    34    16    40 1   
    35    16    41 1   
    36    17    24 1   
    37    17    42 1   
    38    17    43 1   
    39    17    44 1   
    40    18    25 1   
    41    18    45 1   
    42    18    46 1   
    43    18    47 1   
    44    19    25 1   
    45    19    48 1   
    46    19    49 1   
    47    19    50 1   
    48    20    26 1   
    49    20    51 1   
    50    20    52 1   
    51    20    53 1   
    52    21    26 1   
    53    21    54 1   
    54    21    55 1   
    55    21    56 1   
    56    22    26 1   
    57    22    57 1   
    58    22    58 1   
    59    22    59 1   
    60    23    25 1   
    61    23    62 1   
    62    23    63 1   
    63    24    64 1   
    64    26    30 1   
    65    27    65 1   
    66    60    65 1   
    67    61    65 1   
@<TRIPOS>SUBSTRUCTURE
     1 QY7         1 TEMP              0 ****  ****    0 ROOT
