@<TRIPOS>MOLECULE
QY8
   17    18     1     0     0
SMALL
abcg2


@<TRIPOS>ATOM
      1 C1         -23.4550    22.3230   -26.6110 cc         1 QY8       0.725800
      2 N1         -24.0070    21.1570   -26.2170 nv         1 QY8      -1.040200
      3 O1         -20.4820    24.0350   -25.7130 o          1 QY8      -0.545000
      4 C2         -23.4400    24.2460   -27.7260 cd         1 QY8       0.162400
      5 N2         -24.0830    23.0920   -27.4570 nd         1 QY8      -0.715100
      6 C3         -22.2200    24.6790   -27.2110 cc         1 QY8      -0.306600
      7 N3         -23.8860    25.1990   -28.5700 na         1 QY8      -0.110000
      8 C4         -21.9390    25.9530   -27.7860 cc         1 QY8      -0.092000
      9 N4         -22.2560    22.6550   -26.0490 ns         1 QY8      -0.456400
     10 C5         -22.9830    26.2390   -28.6140 cd         1 QY8      -0.205000
     11 C6         -21.5440    23.8370   -26.2840 c          1 QY8       0.623600
     12 H1         -24.7870    20.8220   -26.7570 hn         1 QY8       0.492500
     13 H2         -23.4340    20.4450   -25.7950 hn         1 QY8       0.492500
     14 H3         -24.7480    25.1520   -29.0900 hn         1 QY8       0.357000
     15 H4         -21.0760    26.5760   -27.6100 ha         1 QY8       0.146000
     16 H5         -21.8330    22.0100   -25.3950 hn         1 QY8       0.320500
     17 H6         -23.1660    27.0970   -29.2390 h4         1 QY8       0.149000
@<TRIPOS>BOND
     1     1     2 1   
     2     1     5 2   
     3     1     9 1   
     4     2    12 1   
     5     2    13 1   
     6     3    11 2   
     7     4     5 1   
     8     4     6 2   
     9     4     7 1   
    10     6     8 1   
    11     6    11 1   
    12     7    10 1   
    13     7    14 1   
    14     8    10 2   
    15     8    15 1   
    16     9    11 1   
    17     9    16 1   
    18    10    17 1   
@<TRIPOS>SUBSTRUCTURE
     1 QY8         1 TEMP              0 ****  ****    0 ROOT
