@<TRIPOS>MOLECULE
QY8
   17    18     1     0     0
SMALL
No Charge or Current Charge


@<TRIPOS>ATOM
      1 C1         -23.4350    22.3410   -26.5460 cc         1 QY8       0.725800
      2 N1         -23.9550    21.1850   -26.1760 nv         1 QY8      -1.040200
      3 O1         -20.5040    24.0880   -25.7670 o          1 QY8      -0.545000
      4 C2         -23.5130    24.2390   -27.7490 cd         1 QY8       0.162400
      5 N2         -24.1340    23.0450   -27.4100 nd         1 QY8      -0.715100
      6 C3         -22.3160    24.6140   -27.2300 cc         1 QY8      -0.306600
      7 N3         -23.9340    25.2370   -28.6210 na         1 QY8      -0.110000
      8 C4         -21.9690    25.8680   -27.7760 cc         1 QY8      -0.092000
      9 N4         -22.2440    22.6580   -25.9940 ns         1 QY8      -0.456400
     10 C5         -22.9650    26.2610   -28.6390 cd         1 QY8      -0.205000
     11 C6         -21.5780    23.8010   -26.2700 c          1 QY8       0.623600
     12 H1         -24.7400    20.9020   -26.7490 hn         1 QY8       0.492500
     13 H2         -23.3060    20.4440   -25.9400 hn         1 QY8       0.492500
     14 H3         -24.7980    25.2170   -29.1490 hn         1 QY8       0.357000
     15 H4         -21.0610    26.4200   -27.5440 ha         1 QY8       0.146000
     16 H5         -21.8250    22.0390   -25.3220 hn         1 QY8       0.320500
     17 H6         -23.0610    27.1560   -29.2440 h4         1 QY8       0.149000
@<TRIPOS>BOND
     1     1     2 1   
     2     1     5 2   
     3     1     9 1   
     4     2    12 1   
     5     2    13 1   
     6     3    11 2   
     7     4     5 1   
     8     4     6 2   
     9     4     7 1   
    10     6     8 1   
    11     6    11 1   
    12     7    10 1   
    13     7    14 1   
    14     8    10 2   
    15     8    15 1   
    16     9    11 1   
    17     9    16 1   
    18    10    17 1   
@<TRIPOS>SUBSTRUCTURE
     1 QY8         1 TEMP              0 ****  ****    0 ROOT
