@<TRIPOS>MOLECULE
QY9
   18    18     1     0     0
SMALL
bcc


@<TRIPOS>ATOM
      1 CAA          3.4330     0.2290     0.1900 c3         1 QY9      -0.156100
      2 OAB          1.7330    -0.2940    -1.4350 o          1 QY9      -0.508000
      3 CAC         -2.9030    -0.1630    -0.1910 ca         1 QY9      -0.127000
      4 CAD         -2.1710    -1.2530     0.2610 ca         1 QY9      -0.117000
      5 CAE         -2.2740     1.0620    -0.3770 ca         1 QY9      -0.117000
      6 CAF         -0.8140    -1.1260     0.5240 ca         1 QY9      -0.127000
      7 CAG         -0.9170     1.2000    -0.1170 ca         1 QY9      -0.127000
      8 OAH          1.1350     0.2490     0.6500 os         1 QY9      -0.366200
      9 CAI          2.0430     0.0250    -0.3210 c          1 QY9       0.644100
     10 CAJ         -0.2030     0.1030     0.3340 ca         1 QY9       0.102100
     11 HAA          4.1560     0.0700    -0.6040 hc         1 QY9       0.071700
     12 HAAA         3.5490     1.2400     0.5840 hc         1 QY9       0.071700
     13 HAAB         3.6420    -0.4620     1.0070 hc         1 QY9       0.071700
     14 HAD         -2.6550    -2.2090     0.4100 ha         1 QY9       0.134000
     15 HAE         -2.8380     1.9160    -0.7270 ha         1 QY9       0.134000
     16 HAF         -0.2410    -1.9710     0.8830 ha         1 QY9       0.142000
     17 HAG         -0.4240     2.1530    -0.2570 ha         1 QY9       0.142000
     18 HAC         -3.9610    -0.2660    -0.3940 ha         1 QY9       0.134000
@<TRIPOS>BOND
     1     1     9 1   
     2     1    11 1   
     3     1    12 1   
     4     1    13 1   
     5     2     9 2   
     6     3     4 ar  
     7     3     5 ar  
     8     3    18 1   
     9     4     6 ar  
    10     4    14 1   
    11     5     7 ar  
    12     5    15 1   
    13     6    10 ar  
    14     6    16 1   
    15     7    10 ar  
    16     7    17 1   
    17     8     9 1   
    18     8    10 1   
@<TRIPOS>SUBSTRUCTURE
     1 QY9         1 TEMP              0 ****  ****    0 ROOT
