@<TRIPOS>MOLECULE
QY9
   18    18     1     0     0
SMALL
No Charge or Current Charge


@<TRIPOS>ATOM
      1 CAA          3.5110     0.2810     0.1970 c3         1 QY9      -0.156100
      2 OAB          1.8850     0.5720    -1.5750 o          1 QY9      -0.459000
      3 CAC         -2.9730    -0.1470    -0.1290 ca         1 QY9      -0.109000
      4 CAD         -2.3310    -1.2410     0.4770 ca         1 QY9      -0.099000
      5 CAE         -2.2260     0.9770    -0.5240 ca         1 QY9      -0.099000
      6 CAF         -0.9400    -1.2150     0.6810 ca         1 QY9      -0.109000
      7 CAG         -0.8350     1.0030    -0.3210 ca         1 QY9      -0.109000
      8 OAH          1.1680    -0.0950     0.5050 os         1 QY9      -0.366200
      9 CAI          2.1100     0.3260    -0.3980 c          1 QY9       0.595100
     10 CAJ         -0.1880    -0.1000     0.2710 ca         1 QY9       0.102100
     11 HAA          4.2880     0.5200    -0.5370 hc         1 QY9       0.071700
     12 HAAA         3.5470     0.9480     1.0660 hc         1 QY9       0.071700
     13 HAAB         3.6710    -0.7020     0.6520 hc         1 QY9       0.071700
     14 HAD         -2.9110    -2.1080     0.7890 ha         1 QY9       0.116000
     15 HAE         -2.7250     1.8270    -0.9850 ha         1 QY9       0.116000
     16 HAF         -0.4440    -2.0590     1.1530 ha         1 QY9       0.124000
     17 HAG         -0.2660     1.8810    -0.6170 ha         1 QY9       0.124000
     18 HAC         -4.0500    -0.1660    -0.2860 ha         1 QY9       0.116000
@<TRIPOS>BOND
     1     1     9 1   
     2     1    11 1   
     3     1    12 1   
     4     1    13 1   
     5     2     9 2   
     6     3     4 ar  
     7     3     5 ar  
     8     3    18 1   
     9     4     6 ar  
    10     4    14 1   
    11     5     7 ar  
    12     5    15 1   
    13     6    10 ar  
    14     6    16 1   
    15     7    10 ar  
    16     7    17 1   
    17     8     9 1   
    18     8    10 1   
@<TRIPOS>SUBSTRUCTURE
     1 QY9         1 TEMP              0 ****  ****    0 ROOT
