@<TRIPOS>MOLECULE
QYA
   34    35     1     0     0
SMALL
No Charge or Current Charge


@<TRIPOS>ATOM
      1 C12          4.5810    -0.1560    -1.5780 cc         1 QYA       0.006600
      2 C14          6.3180     0.9560    -0.1920 c          1 QYA       0.591200
      3 C16          4.3800    -0.1030     0.8590 c          1 QYA       0.622000
      4 C01         -3.0070     0.8990     0.2090 ca         1 QYA       0.023000
      5 C02         -1.6390     0.6020     0.0890 ca         1 QYA      -0.176000
      6 C03         -1.2110    -0.7170    -0.1780 ca         1 QYA       0.036000
      7 C04         -2.1800    -1.7290    -0.3140 ca         1 QYA      -0.176000
      8 C05         -3.5500    -1.4400    -0.1950 ca         1 QYA       0.023000
      9 C06         -3.9670    -0.1210     0.0660 ca         1 QYA      -0.306500
     10 C08          1.3310    -0.3570    -0.3190 c          1 QYA       0.596100
     11 C13          5.7630     0.5410    -1.4830 cd         1 QYA      -0.366200
     12 N07          0.1540    -1.0940    -0.3090 ns         1 QYA      -0.143000
     13 N11          3.8890    -0.4820    -0.4110 n          1 QYA      -0.300000
     14 N15          5.5550     0.5840     0.8670 ns         1 QYA      -0.463500
     15 N22         -6.0800     0.7240    -1.3030 n8         1 QYA      -1.003100
     16 O10          1.3790     0.8660    -0.2280 o          1 QYA      -0.547100
     17 O17          3.8050    -0.3660     1.9020 o          1 QYA      -0.551000
     18 O18          7.3600     1.5730    -0.0640 o          1 QYA      -0.517000
     19 O20         -6.4790    -0.9630     0.4120 o          1 QYA      -0.544500
     20 O21         -5.9020     1.4610     1.0400 o          1 QYA      -0.544500
     21 S19         -5.7100     0.2640     0.2210 sy         1 QYA       1.131600
     22 H121         4.1030    -0.4950    -2.4940 h4         1 QYA       0.203000
     23 H011        -3.3150     1.9240     0.4140 ha         1 QYA       0.139500
     24 H021        -0.9300     1.4130     0.2120 ha         1 QYA       0.135000
     25 H041        -1.8720    -2.7530    -0.5150 ha         1 QYA       0.135000
     26 H051        -4.2770    -2.2440    -0.3050 ha         1 QYA       0.139500
     27 H092         2.5750    -1.9910     0.3090 h1         1 QYA       0.082700
     28 H091         2.5180    -1.7500    -1.4370 h1         1 QYA       0.082700
     29 H131         6.3470     0.8230    -2.3520 ha         1 QYA       0.226000
     30 H071         0.2890    -2.0910    -0.4130 hn         1 QYA       0.155000
     31 H1           5.9000     0.8500     1.7750 hn         1 QYA       0.346500
     32 H221        -5.3260     0.3050    -1.8420 hn         1 QYA       0.472500
     33 H222        -6.8800     0.1260    -1.4950 hn         1 QYA       0.472500
     34 C09          2.5960    -1.2250    -0.4770 c3         1 QYA       0.019000
@<TRIPOS>BOND
     1     1    11 2   
     2     1    13 1   
     3     1    22 1   
     4     2    11 1   
     5     2    14 1   
     6     2    18 2   
     7     3    13 1   
     8     3    14 1   
     9     3    17 2   
    10     4     5 ar  
    11     4     9 ar  
    12     4    23 1   
    13     5     6 ar  
    14     5    24 1   
    15     6     7 ar  
    16     6    12 1   
    17     7     8 ar  
    18     7    25 1   
    19     8     9 ar  
    20     8    26 1   
    21     9    21 1   
    22    10    12 1   
    23    10    16 2   
    24    10    34 1   
    25    11    29 1   
    26    12    30 1   
    27    13    34 1   
    28    14    31 1   
    29    15    21 1   
    30    15    32 1   
    31    15    33 1   
    32    19    21 2   
    33    20    21 2   
    34    27    34 1   
    35    28    34 1   
@<TRIPOS>SUBSTRUCTURE
     1 QYA         1 TEMP              0 ****  ****    0 ROOT
