@<TRIPOS>MOLECULE
QYA
   34    35     1     0     0
SMALL
bcc


@<TRIPOS>ATOM
      1 C12          4.5260    -0.1100    -1.5100 cc         1 QYA       0.056600
      2 C14          5.9920     1.1480    -0.0740 c          1 QYA       0.733700
      3 C16          4.0840    -0.1370     0.8390 c          1 QYA       0.831500
      4 C01         -2.8280     0.7990    -0.0150 ca         1 QYA       0.005000
      5 C02         -1.4860     0.4920    -0.1350 ca         1 QYA      -0.194000
      6 C03         -1.0850    -0.8470    -0.1980 ca         1 QYA       0.128600
      7 C04         -2.0520    -1.8540    -0.1410 ca         1 QYA      -0.194000
      8 C05         -3.3930    -1.5430    -0.0220 ca         1 QYA       0.005000
      9 C06         -3.7780    -0.2120     0.0390 ca         1 QYA      -0.306500
     10 C08          1.3610    -0.5110    -0.4550 c          1 QYA       0.663100
     11 C13          5.5920     0.6970    -1.3840 cd         1 QYA      -0.316200
     12 N07          0.2390    -1.2590    -0.3090 ns         1 QYA      -0.469100
     13 N11          3.7980    -0.5520    -0.4450 n          1 QYA      -0.367000
     14 N15          5.1790     0.6740     0.9480 ns         1 QYA      -0.597500
     15 N22         -5.7990     0.9250    -1.2240 n8         1 QYA      -0.892700
     16 O10          1.4000     0.7000    -0.4810 o          1 QYA      -0.547100
     17 O17          3.4130    -0.4760     1.7900 o          1 QYA      -0.626500
     18 O18          6.9370     1.8730     0.1760 o          1 QYA      -0.592500
     19 O20         -6.2290    -1.0140     0.4490 o          1 QYA      -0.615300
     20 O21         -5.6030     1.2770     1.2230 o          1 QYA      -0.615300
     21 S19         -5.4780     0.2160     0.2330 sy         1 QYA       1.273200
     22 H121         4.1960    -0.4640    -2.4770 h4         1 QYA       0.153000
     23 H011        -3.1220     1.8390     0.0370 ha         1 QYA       0.157500
     24 H021        -0.7670     1.2920    -0.1710 ha         1 QYA       0.153000
     25 H041        -1.7540    -2.8940    -0.1920 ha         1 QYA       0.153000
     26 H051        -4.1220    -2.3400     0.0200 ha         1 QYA       0.157500
     27 H092         2.6230    -2.2040     0.0570 h1         1 QYA       0.082700
     28 H091         2.6270    -1.7670    -1.6390 h1         1 QYA       0.082700
     29 H131         6.1490     1.0100    -2.2520 ha         1 QYA       0.176000
     30 H071         0.3710    -2.2610    -0.3030 hn         1 QYA       0.321500
     31 H1           5.4070     0.9730     1.8880 hn         1 QYA       0.346500
     32 H221        -5.8400     0.2550    -1.9860 hn         1 QYA       0.417300
     33 H222        -6.6570     1.4680    -1.1900 hn         1 QYA       0.417300
     34 C09          2.6170    -1.3560    -0.6280 c3         1 QYA       0.019000
@<TRIPOS>BOND
     1     1    11 2   
     2     1    13 1   
     3     1    22 1   
     4     2    11 1   
     5     2    14 1   
     6     2    18 2   
     7     3    13 1   
     8     3    14 1   
     9     3    17 2   
    10     4     5 ar  
    11     4     9 ar  
    12     4    23 1   
    13     5     6 ar  
    14     5    24 1   
    15     6     7 ar  
    16     6    12 1   
    17     7     8 ar  
    18     7    25 1   
    19     8     9 ar  
    20     8    26 1   
    21     9    21 1   
    22    10    12 1   
    23    10    16 2   
    24    10    34 1   
    25    11    29 1   
    26    12    30 1   
    27    13    34 1   
    28    14    31 1   
    29    15    21 1   
    30    15    32 1   
    31    15    33 1   
    32    19    21 2   
    33    20    21 2   
    34    27    34 1   
    35    28    34 1   
@<TRIPOS>SUBSTRUCTURE
     1 QYA         1 TEMP              0 ****  ****    0 ROOT
