@<TRIPOS>MOLECULE
QYB
   24    26     1     0     0
SMALL
abcg2


@<TRIPOS>ATOM
      1 C1         -21.6990    23.3240   -26.7700 c          1 QYB       0.621600
      2 N1         -22.4510    22.1800   -26.5200 ns         1 QYB      -0.447400
      3 O1         -20.5040    23.3560   -26.5470 o          1 QYB      -0.535000
      4 C2         -23.7850    22.0440   -26.7590 cc         1 QYB       0.504800
      5 N2         -24.5520    22.9470   -27.2530 nd         1 QYB      -0.661700
      6 C3         -23.9100    24.1190   -27.5390 cd         1 QYB       0.472000
      7 N3         -23.5230    26.0590   -28.2060 na         1 QYB       0.020800
      8 C4         -22.5370    24.3650   -27.3020 cd         1 QYB      -0.318600
      9 N4         -24.5010    25.1620   -28.0880 nc         1 QYB      -0.491800
     10 C5         -22.3230    25.6610   -27.7600 cc         1 QYB       0.000000
     11 C6         -21.1380    26.5140   -27.8230 ca         1 QYB      -0.053000
     12 C7         -20.2440    26.5600   -26.7520 ca         1 QYB      -0.075500
     13 C8         -19.1310    27.3840   -26.8110 ca         1 QYB      -0.112000
     14 C9         -18.8950    28.1650   -27.9350 ca         1 QYB      -0.090000
     15 C10        -19.7810    28.1220   -29.0030 ca         1 QYB      -0.112000
     16 C11        -20.8970    27.3010   -28.9490 ca         1 QYB      -0.075500
     17 H1         -21.9600    21.3820   -26.1390 hn         1 QYB       0.327500
     18 H2         -24.1920    21.0760   -26.4960 h5         1 QYB       0.046800
     19 H3         -23.7430    26.9710   -28.5800 hn         1 QYB       0.379000
     20 H4         -20.4280    25.9660   -25.8680 ha         1 QYB       0.122000
     21 H5         -18.4480    27.4170   -25.9720 ha         1 QYB       0.119000
     22 H6         -18.0240    28.8050   -27.9780 ha         1 QYB       0.117000
     23 H7         -19.6000    28.7230   -29.8840 ha         1 QYB       0.119000
     24 H8         -21.5690    27.2610   -29.7980 ha         1 QYB       0.122000
@<TRIPOS>BOND
     1     1     2 1   
     2     1     3 2   
     3     1     8 1   
     4     2     4 1   
     5     2    17 1   
     6     4     5 2   
     7     4    18 1   
     8     5     6 1   
     9     6     8 1   
    10     6     9 2   
    11     7     9 1   
    12     7    10 1   
    13     7    19 1   
    14     8    10 2   
    15    10    11 1   
    16    11    12 ar  
    17    11    16 ar  
    18    12    13 ar  
    19    12    20 1   
    20    13    14 ar  
    21    13    21 1   
    22    14    15 ar  
    23    14    22 1   
    24    15    16 ar  
    25    15    23 1   
    26    16    24 1   
@<TRIPOS>SUBSTRUCTURE
     1 QYB         1 TEMP              0 ****  ****    0 ROOT
