@<TRIPOS>MOLECULE
QYB
   24    26     1     0     0
SMALL
No Charge or Current Charge


@<TRIPOS>ATOM
      1 C1         -21.6650    23.4420   -26.8700 c          1 QYB       0.621600
      2 N1         -22.3170    22.2780   -26.6060 ns         1 QYB      -0.447400
      3 O1         -20.4620    23.5750   -26.7250 o          1 QYB      -0.535000
      4 C2         -23.6720    22.0530   -26.7740 cc         1 QYB       0.504800
      5 N2         -24.5580    22.9430   -27.2350 nd         1 QYB      -0.661700
      6 C3         -23.9520    24.1440   -27.5090 cd         1 QYB       0.472000
      7 N3         -23.7230    26.1260   -28.1640 na         1 QYB       0.020800
      8 C4         -22.6080    24.4410   -27.3440 cd         1 QYB      -0.318600
      9 N4         -24.6780    25.1230   -27.9990 nc         1 QYB      -0.491800
     10 C5         -22.4510    25.7430   -27.7380 cc         1 QYB       0.000000
     11 C6         -21.2020    26.5020   -27.7960 ca         1 QYB      -0.053000
     12 C7         -20.3480    26.5810   -26.6770 ca         1 QYB      -0.075500
     13 C8         -19.1650    27.3380   -26.7360 ca         1 QYB      -0.112000
     14 C9         -18.8300    28.0310   -27.9110 ca         1 QYB      -0.090000
     15 C10        -19.6840    27.9700   -29.0250 ca         1 QYB      -0.112000
     16 C11        -20.8680    27.2140   -28.9650 ca         1 QYB      -0.075500
     17 H1         -21.7410    21.5220   -26.2640 hn         1 QYB       0.327500
     18 H2         -23.9570    21.0460   -26.4970 h5         1 QYB       0.046800
     19 H3         -23.9710    27.0370   -28.5430 hn         1 QYB       0.379000
     20 H4         -20.6070    26.0640   -25.7560 ha         1 QYB       0.122000
     21 H5         -18.5100    27.3900   -25.8690 ha         1 QYB       0.119000
     22 H6         -17.9150    28.6170   -27.9570 ha         1 QYB       0.117000
     23 H7         -19.4300    28.5100   -29.9350 ha         1 QYB       0.119000
     24 H8         -21.5210    27.1730   -29.8350 ha         1 QYB       0.122000
@<TRIPOS>BOND
     1     1     2 1   
     2     1     3 2   
     3     1     8 1   
     4     2     4 1   
     5     2    17 1   
     6     4     5 2   
     7     4    18 1   
     8     5     6 1   
     9     6     8 1   
    10     6     9 2   
    11     7     9 1   
    12     7    10 1   
    13     7    19 1   
    14     8    10 2   
    15    10    11 1   
    16    11    12 ar  
    17    11    16 ar  
    18    12    13 ar  
    19    12    20 1   
    20    13    14 ar  
    21    13    21 1   
    22    14    15 ar  
    23    14    22 1   
    24    15    16 ar  
    25    15    23 1   
    26    16    24 1   
@<TRIPOS>SUBSTRUCTURE
     1 QYB         1 TEMP              0 ****  ****    0 ROOT
