@<TRIPOS>MOLECULE
QYC
   49    52     1     0     0
SMALL
abcg2


@<TRIPOS>ATOM
      1 C18        -49.7710   -28.9480     6.3840 ca         1 QYC      -0.001000
      2 C16        -47.8860   -28.2330     5.0390 ca         1 QYC      -0.043000
      3 C17        -48.6910   -28.0820     6.1520 ca         1 QYC      -0.169500
      4 C15        -48.1290   -29.2500     4.1100 ca         1 QYC      -0.155600
      5 C14        -47.3060   -29.4620     2.8820 c          1 QYC       0.613700
      6 C12        -45.1380   -29.0080     1.7840 c5         1 QYC       0.151000
      7 C11        -44.8540   -27.6790     1.1170 ca         1 QYC      -0.069300
      8 C10        -45.7300   -26.6350     0.8600 ca         1 QYC      -0.129000
      9 C20        -51.6690   -29.3810     7.9580 c          1 QYC       0.662100
     10 C02        -43.6530   -31.0510     2.2930 c          1 QYC       0.716000
     11 C03        -43.7340   -29.5170     2.1850 c5         1 QYC      -0.195700
     12 C04        -42.7930   -28.8900     1.1310 c5         1 QYC      -0.011100
     13 C05        -43.5190   -27.6320     0.7290 ca         1 QYC      -0.091300
     14 C06        -43.0400   -26.5140     0.0540 ca         1 QYC       0.122100
     15 C08        -43.9060   -25.4500    -0.2090 ca         1 QYC      -0.211000
     16 C09        -45.2380   -25.5140     0.1940 ca         1 QYC      -0.098000
     17 C22        -53.3590   -29.4270     9.7170 cx         1 QYC       0.066700
     18 C23        -53.4480   -29.4380    11.2130 cx         1 QYC      -0.136400
     19 C24        -53.3040   -30.7330    10.4590 cx         1 QYC      -0.136400
     20 C26        -50.0250   -29.9660     5.4540 ca         1 QYC      -0.169500
     21 C27        -49.2140   -30.0960     4.3380 ca         1 QYC      -0.043000
     22 N13        -46.0600   -28.9400     2.8970 ns         1 QYC      -0.472900
     23 N19        -50.5220   -28.7310     7.5360 ns         1 QYC      -0.164000
     24 N21        -52.1600   -28.9060     9.1360 ns         1 QYC      -0.510900
     25 O01        -43.3200   -31.5290     3.4090 o          1 QYC      -0.725000
     26 O07        -41.7240   -26.5020    -0.3190 oh         1 QYC      -0.537100
     27 O25        -52.1980   -30.3030     7.3420 o          1 QYC      -0.614100
     28 O28        -47.7480   -30.0940     1.9160 o          1 QYC      -0.609100
     29 O29        -43.9310   -31.7090     1.2580 o          1 QYC      -0.725000
     30 H161       -47.0800   -27.5250     4.8940 ha         1 QYC       0.128000
     31 H171       -48.4930   -27.2790     6.8530 ha         1 QYC       0.123500
     32 H121       -45.5780   -29.6920     1.0580 h1         1 QYC       0.124700
     33 H101       -46.7640   -26.6840     1.1770 ha         1 QYC       0.115000
     34 H031       -43.4940   -29.0840     3.1590 hc         1 QYC       0.034700
     35 H042       -41.7940   -28.7020     1.5260 hc         1 QYC       0.063200
     36 H041       -42.6860   -29.5620     0.2740 hc         1 QYC       0.063200
     37 H081       -43.5300   -24.5730    -0.7240 ha         1 QYC       0.094000
     38 H091       -45.8920   -24.6760    -0.0150 ha         1 QYC       0.095000
     39 H221       -54.2680   -29.2130     9.1650 h1         1 QYC       0.085700
     40 H231       -52.5860   -29.0790    11.7600 hc         1 QYC       0.077450
     41 H232       -54.4040   -29.2000    11.6590 hc         1 QYC       0.077450
     42 H241       -52.3430   -31.2290    10.4960 hc         1 QYC       0.077450
     43 H242       -54.1610   -31.3890    10.3860 hc         1 QYC       0.077450
     44 H261       -50.8480   -30.6410     5.6130 ha         1 QYC       0.123500
     45 H271       -49.4190   -30.8830     3.6240 ha         1 QYC       0.128000
     46 H131       -45.7400   -28.4680     3.7270 hn         1 QYC       0.303500
     47 H191       -50.1780   -27.9910     8.1310 hn         1 QYC       0.139000
     48 H211       -51.7600   -28.0780     9.5480 hn         1 QYC       0.310500
     49 H071       -41.5140   -25.6640    -0.7530 ho         1 QYC       0.444000
@<TRIPOS>BOND
     1     1     3 ar  
     2     1    20 ar  
     3     1    23 1   
     4     2     3 ar  
     5     2     4 ar  
     6     2    30 1   
     7     3    31 1   
     8     4     5 1   
     9     4    21 ar  
    10     5    22 1   
    11     5    28 2   
    12     6     7 1   
    13     6    11 1   
    14     6    22 1   
    15     6    32 1   
    16     7     8 ar  
    17     7    13 ar  
    18     8    16 ar  
    19     8    33 1   
    20     9    23 1   
    21     9    24 1   
    22     9    27 2   
    23    10    11 1   
    24    10    25 1   
    25    10    29 1   
    26    11    12 1   
    27    11    34 1   
    28    12    13 1   
    29    12    35 1   
    30    12    36 1   
    31    13    14 ar  
    32    14    15 ar  
    33    14    26 1   
    34    15    16 ar  
    35    15    37 1   
    36    16    38 1   
    37    17    18 1   
    38    17    19 1   
    39    17    24 1   
    40    17    39 1   
    41    18    19 1   
    42    18    40 1   
    43    18    41 1   
    44    19    42 1   
    45    19    43 1   
    46    20    21 ar  
    47    20    44 1   
    48    21    45 1   
    49    22    46 1   
    50    23    47 1   
    51    24    48 1   
    52    26    49 1   
@<TRIPOS>SUBSTRUCTURE
     1 QYC         1 TEMP              0 ****  ****    0 ROOT
