@<TRIPOS>MOLECULE
QYC
   49    52     1     0     0
SMALL
No Charge or Current Charge


@<TRIPOS>ATOM
      1 C18        -49.8400   -29.1860     6.2900 ca         1 QYC      -0.001000
      2 C16        -47.9500   -28.4200     4.9370 ca         1 QYC      -0.043000
      3 C17        -48.7900   -28.2820     6.0550 ca         1 QYC      -0.169500
      4 C15        -48.1440   -29.4790     4.0190 ca         1 QYC      -0.155600
      5 C14        -47.2630   -29.6680     2.7990 c          1 QYC       0.613700
      6 C12        -45.3370   -28.8780     1.4870 c5         1 QYC       0.151000
      7 C11        -44.8260   -27.5720     0.9340 ca         1 QYC      -0.069300
      8 C10        -45.5980   -26.4620     0.5510 ca         1 QYC      -0.129000
      9 C20        -51.7420   -29.6530     7.9510 c          1 QYC       0.662100
     10 C02        -44.0030   -30.9920     2.0930 c          1 QYC       0.716000
     11 C03        -44.0080   -29.4460     2.1290 c5         1 QYC      -0.195700
     12 C04        -42.8270   -28.8530     1.2600 c5         1 QYC      -0.011100
     13 C05        -43.4500   -27.5550     0.8090 ca         1 QYC      -0.091300
     14 C06        -42.7880   -26.4260     0.2960 ca         1 QYC       0.122100
     15 C08        -43.5450   -25.3040    -0.0870 ca         1 QYC      -0.211000
     16 C09        -44.9500   -25.3220     0.0400 ca         1 QYC      -0.098000
     17 C22        -53.3340   -29.5850     9.8620 cx         1 QYC       0.066700
     18 C23        -53.5490   -29.0360    11.2500 cx         1 QYC      -0.136400
     19 C24        -53.0510   -30.4480    11.0660 cx         1 QYC      -0.136400
     20 C26        -50.0360   -30.2430     5.3790 ca         1 QYC      -0.169500
     21 C27        -49.1990   -30.3870     4.2590 ca         1 QYC      -0.043000
     22 N13        -46.2560   -28.7360     2.6230 ns         1 QYC      -0.472900
     23 N19        -50.6440   -28.9770     7.4440 ns         1 QYC      -0.164000
     24 N21        -52.2090   -29.0900     9.1170 ns         1 QYC      -0.510900
     25 O01        -43.8680   -31.6000     3.1440 o          1 QYC      -0.725000
     26 O07        -41.4300   -26.4100     0.1640 oh         1 QYC      -0.537100
     27 O25        -52.2660   -30.6370     7.4470 o          1 QYC      -0.614100
     28 O28        -47.4440   -30.5890     2.0130 o          1 QYC      -0.609100
     29 O29        -44.1040   -31.5710     1.0210 o          1 QYC      -0.725000
     30 H161       -47.1530   -27.6930     4.8030 ha         1 QYC       0.128000
     31 H171       -48.6200   -27.4590     6.7460 ha         1 QYC       0.123500
     32 H121       -45.7130   -29.5080     0.6670 h1         1 QYC       0.124700
     33 H101       -46.6820   -26.4830     0.6470 ha         1 QYC       0.115000
     34 H031       -43.8920   -29.1070     3.1660 hc         1 QYC       0.034700
     35 H042       -41.9130   -28.7140     1.8480 hc         1 QYC       0.063200
     36 H041       -42.5740   -29.4840     0.4000 hc         1 QYC       0.063200
     37 H081       -43.0550   -24.4190    -0.4860 ha         1 QYC       0.094000
     38 H091       -45.5340   -24.4540    -0.2590 ha         1 QYC       0.095000
     39 H221       -54.2140   -29.8130     9.2570 h1         1 QYC       0.085700
     40 H231       -52.8470   -28.2960    11.6250 hc         1 QYC       0.077450
     41 H232       -54.5750   -28.8990    11.5830 hc         1 QYC       0.077450
     42 H241       -52.0130   -30.6580    11.3110 hc         1 QYC       0.077450
     43 H242       -53.7420   -31.2620    11.2740 hc         1 QYC       0.077450
     44 H261       -50.8310   -30.9680     5.5180 ha         1 QYC       0.123500
     45 H271       -49.3770   -31.2140     3.5740 ha         1 QYC       0.128000
     46 H131       -46.1770   -27.9970     3.3060 hn         1 QYC       0.303500
     47 H191       -50.3540   -28.1820     7.9970 hn         1 QYC       0.139000
     48 H211       -51.7150   -28.2740     9.4550 hn         1 QYC       0.310500
     49 H071       -41.1700   -25.5420    -0.2090 ho         1 QYC       0.444000
@<TRIPOS>BOND
     1     1     3 ar  
     2     1    20 ar  
     3     1    23 1   
     4     2     3 ar  
     5     2     4 ar  
     6     2    30 1   
     7     3    31 1   
     8     4     5 1   
     9     4    21 ar  
    10     5    22 1   
    11     5    28 2   
    12     6     7 1   
    13     6    11 1   
    14     6    22 1   
    15     6    32 1   
    16     7     8 ar  
    17     7    13 ar  
    18     8    16 ar  
    19     8    33 1   
    20     9    23 1   
    21     9    24 1   
    22     9    27 2   
    23    10    11 1   
    24    10    25 1   
    25    10    29 1   
    26    11    12 1   
    27    11    34 1   
    28    12    13 1   
    29    12    35 1   
    30    12    36 1   
    31    13    14 ar  
    32    14    15 ar  
    33    14    26 1   
    34    15    16 ar  
    35    15    37 1   
    36    16    38 1   
    37    17    18 1   
    38    17    19 1   
    39    17    24 1   
    40    17    39 1   
    41    18    19 1   
    42    18    40 1   
    43    18    41 1   
    44    19    42 1   
    45    19    43 1   
    46    20    21 ar  
    47    20    44 1   
    48    21    45 1   
    49    22    46 1   
    50    23    47 1   
    51    24    48 1   
    52    26    49 1   
@<TRIPOS>SUBSTRUCTURE
     1 QYC         1 TEMP              0 ****  ****    0 ROOT
