@<TRIPOS>MOLECULE
QYD
   41    43     1     0     0
SMALL
No Charge or Current Charge


@<TRIPOS>ATOM
      1 C1           5.0660    -3.3360     0.2330 ca         1 QYD      -0.099000
      2 C2           4.1120    -3.2450    -0.7950 ca         1 QYD      -0.109000
      3 C3           3.3970    -2.0500    -0.9890 ca         1 QYD      -0.094500
      4 C4           3.6290    -0.9380    -0.1540 ca         1 QYD      -0.084300
      5 C5           4.5890    -1.0360     0.8740 ca         1 QYD      -0.094500
      6 C6           5.3040    -2.2310     1.0670 ca         1 QYD      -0.109000
      7 C7           2.8410     0.3580    -0.3650 c6         1 QYD       0.098600
      8 C8           1.9620     0.7090     0.8630 c6         1 QYD       0.096000
      9 N9           1.1050     1.9010     0.5940 n          1 QYD      -0.410800
     10 C10          1.8820     3.1630     0.4730 c6         1 QYD       0.095000
     11 C11          2.7650     3.1520    -0.7960 c6         1 QYD       0.025600
     12 S12          3.9810     1.7480    -0.8310 ss         1 QYD      -0.419000
     13 C13         -0.2860     1.8490     0.3320 c          1 QYD       0.657100
     14 O14         -0.9130     2.8660     0.0710 o          1 QYD      -0.601100
     15 N15         -0.8610     0.5860     0.3760 ns         1 QYD      -0.157000
     16 C16         -2.1950     0.1320     0.1910 ca         1 QYD       0.047000
     17 C17         -2.4080    -1.2570     0.1570 ca         1 QYD      -0.176000
     18 C18         -3.6970    -1.7880    -0.0190 ca         1 QYD      -0.009500
     19 C19         -4.8070    -0.9260    -0.1610 ca         1 QYD      -0.221200
     20 C20         -4.5980     0.4710    -0.1210 ca         1 QYD      -0.009500
     21 C21         -3.3040     0.9920     0.0550 ca         1 QYD      -0.176000
     22 N22         -6.1840    -1.4840    -0.3490 no         1 QYD       0.701200
     23 O23         -6.3180    -2.7140    -0.3760 o          1 QYD      -0.405500
     24 O24         -7.1260    -0.6900    -0.4680 o          1 QYD      -0.405500
     25 H1           5.6200    -4.2610     0.3820 ha         1 QYD       0.116000
     26 H2           3.9280    -4.1000    -1.4420 ha         1 QYD       0.117500
     27 H6           6.0440    -2.2990     1.8610 ha         1 QYD       0.117500
     28 H3           2.6610    -1.9920    -1.7880 ha         1 QYD       0.118000
     29 H5           4.7850    -0.1850     1.5220 ha         1 QYD       0.118000
     30 H7           2.1660     0.2160    -1.2220 h1         1 QYD       0.079700
     31 H81C         1.3640    -0.1670     1.1490 h1         1 QYD       0.065700
     32 H82C         2.6130     0.9270     1.7210 h1         1 QYD       0.065700
     33 H101         1.2120     4.0350     0.4420 h1         1 QYD       0.077200
     34 H102         2.5210     3.2850     1.3590 h1         1 QYD       0.077200
     35 H111         2.1230     3.0700    -1.6840 h1         1 QYD       0.084700
     36 H112         3.3230     4.0960    -0.8710 h1         1 QYD       0.084700
     37 H15         -0.2090    -0.1570     0.5800 hn         1 QYD       0.159000
     38 H17         -1.5660    -1.9380     0.2640 ha         1 QYD       0.139500
     39 H21         -3.1910     2.0710     0.0910 ha         1 QYD       0.139500
     40 H18         -3.8220    -2.8700    -0.0440 ha         1 QYD       0.151000
     41 H20         -5.4340     1.1630    -0.2220 ha         1 QYD       0.151000
@<TRIPOS>BOND
     1     1     2 ar  
     2     1     6 ar  
     3     1    25 1   
     4     2     3 ar  
     5     2    26 1   
     6     3     4 ar  
     7     3    28 1   
     8     4     5 ar  
     9     4     7 1   
    10     5     6 ar  
    11     5    29 1   
    12     6    27 1   
    13     7     8 1   
    14     7    12 1   
    15     7    30 1   
    16     8     9 1   
    17     8    31 1   
    18     8    32 1   
    19     9    10 1   
    20     9    13 1   
    21    10    11 1   
    22    10    33 1   
    23    10    34 1   
    24    11    12 1   
    25    11    35 1   
    26    11    36 1   
    27    13    14 2   
    28    13    15 1   
    29    15    16 1   
    30    15    37 1   
    31    16    17 ar  
    32    16    21 ar  
    33    17    18 ar  
    34    17    38 1   
    35    18    19 ar  
    36    18    40 1   
    37    19    20 ar  
    38    19    22 1   
    39    20    21 ar  
    40    20    41 1   
    41    21    39 1   
    42    22    23 1   
    43    22    24 1   
@<TRIPOS>SUBSTRUCTURE
     1 QYD         1 TEMP              0 ****  ****    0 ROOT
