@<TRIPOS>MOLECULE
QYD
   41    43     1     0     0
SMALL
bcc


@<TRIPOS>ATOM
      1 C1           5.0830    -3.2000    -0.1370 ca         1 QYD      -0.117000
      2 C2           3.9640    -3.1730    -0.9570 ca         1 QYD      -0.127000
      3 C3           3.1830    -2.0270    -1.0290 ca         1 QYD      -0.112500
      4 C4           3.5090    -0.8970    -0.2850 ca         1 QYD      -0.084300
      5 C5           4.6380    -0.9310     0.5330 ca         1 QYD      -0.112500
      6 C6           5.4190    -2.0760     0.6070 ca         1 QYD      -0.127000
      7 C7           2.6310     0.3220    -0.3430 c6         1 QYD       0.050700
      8 C8           1.9830     0.6100     1.0140 c6         1 QYD       0.096000
      9 N9           1.1020     1.7630     0.9590 n          1 QYD      -0.477800
     10 C10          1.8030     3.0190     0.7420 c6         1 QYD       0.095000
     11 C11          2.4330     3.0790    -0.6390 c6         1 QYD      -0.022300
     12 S12          3.6430     1.7450    -0.8830 ss         1 QYD      -0.323200
     13 C13         -0.2130     1.7070     0.5910 c          1 QYD       0.791100
     14 O14         -0.8160     2.6710     0.1530 o          1 QYD      -0.601100
     15 N15         -0.8260     0.4850     0.7890 ns         1 QYD      -0.483100
     16 C16         -2.0970     0.1100     0.4030 ca         1 QYD       0.139600
     17 C17         -2.6060    -1.0660     0.9740 ca         1 QYD      -0.194000
     18 C18         -3.8480    -1.5480     0.6290 ca         1 QYD      -0.027500
     19 C19         -4.6100    -0.8530    -0.3020 ca         1 QYD      -0.221200
     20 C20         -4.1230     0.3100    -0.8840 ca         1 QYD      -0.027500
     21 C21         -2.8770     0.7930    -0.5390 ca         1 QYD      -0.194000
     22 N22         -5.9150    -1.3450    -0.6700 no         1 QYD       0.321200
     23 O23         -6.3070    -2.3700    -0.1580 o          1 QYD      -0.215500
     24 O24         -6.5610    -0.7120    -1.4760 o          1 QYD      -0.215500
     25 H1           5.6930    -4.0930    -0.0780 ha         1 QYD       0.134000
     26 H2           3.6970    -4.0430    -1.5440 ha         1 QYD       0.135500
     27 H6           6.2920    -2.0890     1.2460 ha         1 QYD       0.135500
     28 H3           2.3100    -2.0100    -1.6720 ha         1 QYD       0.136000
     29 H5           4.9170    -0.0580     1.1100 ha         1 QYD       0.136000
     30 H7           1.8410     0.1600    -1.0820 h1         1 QYD       0.079700
     31 H81C         1.4680    -0.2860     1.3570 h1         1 QYD       0.065700
     32 H82C         2.7560     0.8100     1.7580 h1         1 QYD       0.065700
     33 H101         1.1130     3.8500     0.8700 h1         1 QYD       0.077200
     34 H102         2.5740     3.1120     1.5090 h1         1 QYD       0.077200
     35 H111         1.6670     3.0340    -1.4150 h1         1 QYD       0.084700
     36 H112         2.9840     4.0110    -0.7630 h1         1 QYD       0.084700
     37 H15         -0.3750    -0.1680     1.4100 hn         1 QYD       0.325500
     38 H17         -2.0140    -1.6090     1.7000 ha         1 QYD       0.157500
     39 H21         -2.5230     1.6930    -1.0120 ha         1 QYD       0.157500
     40 H18         -4.2100    -2.4550     1.0910 ha         1 QYD       0.169000
     41 H20         -4.7070     0.8510    -1.6150 ha         1 QYD       0.169000
@<TRIPOS>BOND
     1     1     2 ar  
     2     1     6 ar  
     3     1    25 1   
     4     2     3 ar  
     5     2    26 1   
     6     3     4 ar  
     7     3    28 1   
     8     4     5 ar  
     9     4     7 1   
    10     5     6 ar  
    11     5    29 1   
    12     6    27 1   
    13     7     8 1   
    14     7    12 1   
    15     7    30 1   
    16     8     9 1   
    17     8    31 1   
    18     8    32 1   
    19     9    10 1   
    20     9    13 1   
    21    10    11 1   
    22    10    33 1   
    23    10    34 1   
    24    11    12 1   
    25    11    35 1   
    26    11    36 1   
    27    13    14 2   
    28    13    15 1   
    29    15    16 1   
    30    15    37 1   
    31    16    17 ar  
    32    16    21 ar  
    33    17    18 ar  
    34    17    38 1   
    35    18    19 ar  
    36    18    40 1   
    37    19    20 ar  
    38    19    22 1   
    39    20    21 ar  
    40    20    41 1   
    41    21    39 1   
    42    22    23 1   
    43    22    24 1   
@<TRIPOS>SUBSTRUCTURE
     1 QYD         1 TEMP              0 ****  ****    0 ROOT
