@<TRIPOS>MOLECULE
QYE
   16    17     1     0     0
SMALL
No Charge or Current Charge


@<TRIPOS>ATOM
      1 C1          45.8220     5.2430    17.5710 ca         1 QYE       0.652900
      2 N1          46.2720     4.6560    18.6810 nv         1 QYE      -1.055900
      3 S1          44.8080     4.3330    13.8250 ss         1 QYE       0.125400
      4 C2          45.1500     7.2560    16.7060 ca         1 QYE       0.411900
      5 N2          45.6250     6.5440    17.7680 nb         1 QYE      -0.760000
      6 C3          44.8620     6.6830    15.4420 ca         1 QYE       0.023000
      7 C4          45.0820     5.3060    15.2850 ca         1 QYE      -0.113000
      8 C5          45.5650     4.5790    16.3550 ca         1 QYE      -0.181800
      9 C6          45.7440     3.1760    16.0400 cc         1 QYE      -0.153200
     10 C7          45.3820     2.9000    14.7290 cd         1 QYE      -0.182400
     11 Cl1         44.2470     7.6670    14.1140 cl         1 QYE      -0.181000
     12 H1          46.1670     5.2200    19.5150 hn         1 QYE       0.481500
     13 H2          46.0830     3.6660    18.7850 hn         1 QYE       0.481500
     14 H3          44.9930     8.3210    16.8740 h4         1 QYE       0.031100
     15 H4          46.1220     2.4190    16.7250 ha         1 QYE       0.200000
     16 H5          45.4160     1.9390    14.2250 h4         1 QYE       0.219000
@<TRIPOS>BOND
     1     1     2 1   
     2     1     5 ar  
     3     1     8 ar  
     4     2    12 1   
     5     2    13 1   
     6     3     7 1   
     7     3    10 1   
     8     4     5 ar  
     9     4     6 ar  
    10     4    14 1   
    11     6     7 ar  
    12     6    11 1   
    13     7     8 ar  
    14     8     9 1   
    15     9    10 2   
    16     9    15 1   
    17    10    16 1   
@<TRIPOS>SUBSTRUCTURE
     1 QYE         1 TEMP              0 ****  ****    0 ROOT
