@<TRIPOS>MOLECULE
QYE
   16    17     1     0     0
SMALL
abcg2


@<TRIPOS>ATOM
      1 C1          45.7820     5.2660    17.6020 ca         1 QYE       0.652900
      2 N1          46.2690     4.6170    18.6860 nv         1 QYE      -1.055900
      3 S1          44.8500     4.3490    13.9030 ss         1 QYE       0.125400
      4 C2          45.1270     7.2620    16.6520 ca         1 QYE       0.411900
      5 N2          45.5690     6.5690    17.7050 nb         1 QYE      -0.760000
      6 C3          44.8620     6.6980    15.4290 ca         1 QYE       0.023000
      7 C4          45.0810     5.3260    15.2990 ca         1 QYE      -0.113000
      8 C5          45.5500     4.5800    16.3810 ca         1 QYE      -0.181800
      9 C6          45.7200     3.1990    16.0420 cc         1 QYE      -0.153200
     10 C7          45.3840     2.9420    14.7590 cd         1 QYE      -0.182400
     11 CL1         44.2800     7.6230    14.0930 cl         1 QYE      -0.181000
     12 H1          46.2240     5.1050    19.5660 hn         1 QYE       0.481500
     13 H2          46.1730     3.6180    18.7520 hn         1 QYE       0.481500
     14 H3          44.9750     8.3250    16.8020 h4         1 QYE       0.031100
     15 H4          46.0750     2.4370    16.7200 ha         1 QYE       0.200000
     16 H5          45.4190     1.9920    14.2480 h4         1 QYE       0.219000
@<TRIPOS>BOND
     1     1     2 1   
     2     1     5 ar  
     3     1     8 ar  
     4     2    12 1   
     5     2    13 1   
     6     3     7 1   
     7     3    10 1   
     8     4     5 ar  
     9     4     6 ar  
    10     4    14 1   
    11     6     7 ar  
    12     6    11 1   
    13     7     8 ar  
    14     8     9 1   
    15     9    10 2   
    16     9    15 1   
    17    10    16 1   
@<TRIPOS>SUBSTRUCTURE
     1 QYE         1 TEMP              0 ****  ****    0 ROOT
