@<TRIPOS>MOLECULE
QYG
   42    43     1     0     0
SMALL
No Charge or Current Charge


@<TRIPOS>ATOM
      1 C3           1.9710     2.5010     1.0840 c          1 QYG       0.714000
      2 O            1.5510     2.9260     0.0180 o          1 QYG      -0.711000
      3 CA3          1.0010     1.7000     1.9830 c3         1 QYG      -0.055000
      4 N3           0.3730     0.5220     1.3230 n          1 QYG      -0.301300
      5 C1           1.0090    -0.6380     0.9020 cc         1 QYG       0.451900
      6 CA1          2.5190    -0.8950     1.0740 c3         1 QYG       0.140200
      7 CB1          3.2910    -0.6320    -0.2440 c3         1 QYG      -0.064400
      8 CG1          4.8360    -0.6200    -0.0900 c3         1 QYG      -0.150400
      9 CD3          5.6240    -0.3140    -1.3690 c          1 QYG       0.603100
     10 N            2.8390    -2.2640     1.5940 n8         1 QYG      -1.001200
     11 C2          -0.9730     0.4430     1.0500 c          1 QYG       0.549200
     12 O2          -1.8440     1.2680     1.3020 o          1 QYG      -0.511000
     13 CA2         -1.0450    -0.8940     0.4140 cd         1 QYG       0.032400
     14 N2           0.1870    -1.5390     0.3430 nd         1 QYG      -0.683300
     15 CB2         -2.1680    -1.5200    -0.0850 ce         1 QYG      -0.091200
     16 CG2         -3.5460    -0.9990    -0.3030 ca         1 QYG      -0.081800
     17 CD2         -4.6510    -1.8130     0.0100 ca         1 QYG      -0.052500
     18 CE2         -5.9610    -1.3470    -0.2070 ca         1 QYG      -0.188500
     19 CZ          -6.1700    -0.0700    -0.7490 ca         1 QYG       0.133100
     20 OH          -7.4340     0.3860    -0.9640 oh         1 QYG      -0.538100
     21 CE1         -5.0740     0.7400    -1.0780 ca         1 QYG      -0.188500
     22 CD1         -3.7640     0.2770    -0.8610 ca         1 QYG      -0.052500
     23 NE1          6.9670    -0.2650    -1.2300 nt         1 QYG      -0.626000
     24 OE1          5.1110    -0.1250    -2.4580 o          1 QYG      -0.588100
     25 OXT          3.1280     2.6250     1.4550 o          1 QYG      -0.711000
     26 H1           1.5470     1.3570     2.8710 h1         1 QYG       0.040200
     27 H2           0.2220     2.3920     2.3250 h1         1 QYG       0.040200
     28 H3           2.8960    -0.1800     1.8180 h1         1 QYG       0.067700
     29 H4           3.0020    -1.3830    -0.9900 hc         1 QYG       0.088700
     30 H5           2.9750     0.3380    -0.6480 hc         1 QYG       0.088700
     31 H6           5.1640     0.0850     0.6830 hc         1 QYG       0.054700
     32 H7           5.2200    -1.5640     0.3160 hc         1 QYG       0.054700
     33 H8           2.3830    -2.3910     2.5060 hn         1 QYG       0.402000
     34 H9           2.3500    -2.9470     1.0010 hn         1 QYG       0.402000
     35 H11         -2.0110    -2.5420    -0.4320 ha         1 QYG       0.173000
     36 H12         -4.4950    -2.8050     0.4280 ha         1 QYG       0.135500
     37 H13         -6.8050    -1.9850     0.0450 ha         1 QYG       0.114000
     38 H14         -8.0660    -0.3080    -0.6780 ho         1 QYG       0.456000
     39 H15         -5.2360     1.7260    -1.5060 ha         1 QYG       0.114000
     40 H16         -2.9200     0.9070    -1.1360 ha         1 QYG       0.135500
     41 H17          7.3870    -0.4240    -0.3260 hn         1 QYG       0.302000
     42 H18          7.5400    -0.0690    -2.0380 hn         1 QYG       0.302000
@<TRIPOS>BOND
     1     1     2 1   
     2     1     3 1   
     3     1    25 1   
     4     3     4 1   
     5     3    26 1   
     6     3    27 1   
     7     4     5 1   
     8     4    11 1   
     9     5     6 1   
    10     5    14 2   
    11     6     7 1   
    12     6    10 1   
    13     6    28 1   
    14     7     8 1   
    15     7    29 1   
    16     7    30 1   
    17     8     9 1   
    18     8    31 1   
    19     8    32 1   
    20     9    23 1   
    21     9    24 2   
    22    10    33 1   
    23    10    34 1   
    24    11    12 2   
    25    11    13 1   
    26    13    14 1   
    27    13    15 2   
    28    15    16 1   
    29    15    35 1   
    30    16    17 ar  
    31    16    22 ar  
    32    17    18 ar  
    33    17    36 1   
    34    18    19 ar  
    35    18    37 1   
    36    19    20 1   
    37    19    21 ar  
    38    20    38 1   
    39    21    22 ar  
    40    21    39 1   
    41    22    40 1   
    42    23    41 1   
    43    23    42 1   
@<TRIPOS>SUBSTRUCTURE
     1 QYG         1 TEMP              0 ****  ****    0 ROOT
