@<TRIPOS>MOLECULE
QYG
   42    43     1     0     0
SMALL
abcg2


@<TRIPOS>ATOM
      1 C3           1.6780     2.7540     0.2480 c          1 QYG       0.714000
      2 O            1.3670     2.3250    -0.8740 o          1 QYG      -0.711000
      3 CA3          1.3730     1.8500     1.4650 c3         1 QYG      -0.055000
      4 N3           0.6150     0.6710     1.1360 n          1 QYG      -0.301300
      5 C1           1.0640    -0.6130     0.9170 cc         1 QYG       0.451900
      6 CA1          2.4990    -1.0220     1.1140 c3         1 QYG       0.140200
      7 CB1          3.3190    -0.6280    -0.1220 c3         1 QYG      -0.064400
      8 CG1          4.8090    -0.7650     0.1390 c3         1 QYG      -0.150400
      9 CD3          5.6700    -0.4310    -1.0620 c          1 QYG       0.603100
     10 N            2.6590    -2.4340     1.3890 n8         1 QYG      -1.001200
     11 C2          -0.7200     0.7230     0.8200 c          1 QYG       0.549200
     12 O2          -1.4090     1.7250     0.9000 o          1 QYG      -0.511000
     13 CA2         -1.0360    -0.6730     0.4350 cd         1 QYG       0.032400
     14 N2           0.1420    -1.4190     0.5270 nd         1 QYG      -0.683300
     15 CB2         -2.1900    -1.2810     0.0740 ce         1 QYG      -0.091200
     16 CG2         -3.5550    -0.8450    -0.1210 ca         1 QYG      -0.081800
     17 CD2         -4.4980    -1.8470    -0.4010 ca         1 QYG      -0.052500
     18 CE2         -5.8330    -1.5610    -0.6050 ca         1 QYG      -0.188500
     19 CZ          -6.2740    -0.2400    -0.5410 ca         1 QYG       0.133100
     20 OH          -7.5550     0.1080    -0.7290 oh         1 QYG      -0.538100
     21 CE1         -5.3540     0.7750    -0.2740 ca         1 QYG      -0.188500
     22 CD1         -4.0230     0.4780    -0.0670 ca         1 QYG      -0.052500
     23 NE1          6.9920    -0.5300    -0.8420 nt         1 QYG      -0.626000
     24 OE1          5.2050    -0.0970    -2.1420 o          1 QYG      -0.588100
     25 OXT          2.2240     3.8340     0.5360 o          1 QYG      -0.711000
     26 H1           2.3080     1.5520     1.9410 h1         1 QYG       0.040200
     27 H2           0.8240     2.4220     2.2150 h1         1 QYG       0.040200
     28 H3           2.8910    -0.4730     1.9780 h1         1 QYG       0.067700
     29 H4           3.0130    -1.2700    -0.9530 hc         1 QYG       0.088700
     30 H5           3.0770     0.3910    -0.4250 hc         1 QYG       0.088700
     31 H6           5.1040    -0.1110     0.9660 hc         1 QYG       0.054700
     32 H7           5.0380    -1.7810     0.4700 hc         1 QYG       0.054700
     33 H8           2.1970    -2.6690     2.2580 hn         1 QYG       0.402000
     34 H9           2.1850    -2.9700     0.6710 hn         1 QYG       0.402000
     35 H11         -2.0540    -2.3450    -0.1020 ha         1 QYG       0.173000
     36 H12         -4.1750    -2.8790    -0.4590 ha         1 QYG       0.135500
     37 H13         -6.5310    -2.3650    -0.8120 ha         1 QYG       0.114000
     38 H14         -8.0980    -0.6700    -0.9030 ho         1 QYG       0.456000
     39 H15         -5.6920     1.8030    -0.2310 ha         1 QYG       0.114000
     40 H16         -3.3360     1.2840     0.1380 ha         1 QYG       0.135500
     41 H17          7.3620    -0.8010     0.0530 hn         1 QYG       0.302000
     42 H18          7.6510    -0.3130    -1.5710 hn         1 QYG       0.302000
@<TRIPOS>BOND
     1     1     2 1   
     2     1     3 1   
     3     1    25 1   
     4     3     4 1   
     5     3    26 1   
     6     3    27 1   
     7     4     5 1   
     8     4    11 1   
     9     5     6 1   
    10     5    14 2   
    11     6     7 1   
    12     6    10 1   
    13     6    28 1   
    14     7     8 1   
    15     7    29 1   
    16     7    30 1   
    17     8     9 1   
    18     8    31 1   
    19     8    32 1   
    20     9    23 1   
    21     9    24 2   
    22    10    33 1   
    23    10    34 1   
    24    11    12 2   
    25    11    13 1   
    26    13    14 1   
    27    13    15 2   
    28    15    16 1   
    29    15    35 1   
    30    16    17 ar  
    31    16    22 ar  
    32    17    18 ar  
    33    17    36 1   
    34    18    19 ar  
    35    18    37 1   
    36    19    20 1   
    37    19    21 ar  
    38    20    38 1   
    39    21    22 ar  
    40    21    39 1   
    41    22    40 1   
    42    23    41 1   
    43    23    42 1   
@<TRIPOS>SUBSTRUCTURE
     1 QYG         1 TEMP              0 ****  ****    0 ROOT
