@<TRIPOS>MOLECULE
QYH
   28    29     1     0     0
SMALL
No Charge or Current Charge


@<TRIPOS>ATOM
      1 C1          -3.7050   -10.2140    11.4050 c3         1 QYH       0.148900
      2 N1           4.1560   -12.0830    17.3860 nv         1 QYH      -1.077900
      3 O1          -3.3270   -10.8830    12.6220 os         1 QYH      -0.340100
      4 C2          -2.0110   -10.9950    13.0210 ca         1 QYH       0.155100
      5 N2           4.7390   -11.7060    15.2180 nb         1 QYH      -0.329000
      6 C3          -0.9400   -10.4680    12.2730 ca         1 QYH      -0.186000
      7 N3           5.3100   -11.3100    13.0480 nv         1 QYH      -1.054900
      8 C4           0.3810   -10.6150    12.7310 ca         1 QYH      -0.037500
      9 N4           3.0780   -11.3070    13.5330 nb         1 QYH      -0.294000
     10 C5           0.6710   -11.2880    13.9500 cp         1 QYH      -0.196500
     11 C6          -0.4260   -11.8130    14.6830 ca         1 QYH      -0.037500
     12 C7          -1.7450   -11.6660    14.2220 ca         1 QYH      -0.186000
     13 C8           2.0860   -11.4430    14.4370 cp         1 QYH       0.258500
     14 C9           2.4150   -11.7100    15.7880 ca         1 QYH      -0.342000
     15 C10          3.7620   -11.8330    16.1180 ca         1 QYH       0.415900
     16 C11          4.3340   -11.4490    13.9720 ca         1 QYH       0.410900
     17 H1          -4.7950   -10.2390    11.2800 h1         1 QYH       0.041700
     18 H2          -3.3900    -9.1630    11.4230 h1         1 QYH       0.041700
     19 H3          -3.2520   -10.7040    10.5340 h1         1 QYH       0.041700
     20 H4           5.1390   -11.9530    17.6150 hn         1 QYH       0.489000
     21 H5           3.4900   -11.9500    18.1430 hn         1 QYH       0.489000
     22 H6          -1.1090    -9.9430    11.3370 ha         1 QYH       0.122500
     23 H7           5.0680   -10.8970    12.1510 hn         1 QYH       0.485500
     24 H8           6.2670   -11.1860    13.3690 hn         1 QYH       0.485500
     25 H9           1.1850   -10.1920    12.1330 ha         1 QYH       0.124000
     26 H10         -0.2610   -12.3540    15.6110 ha         1 QYH       0.124000
     27 H11         -2.5670   -12.0790    14.8010 ha         1 QYH       0.122500
     28 H12          1.6520   -11.8050    16.5520 ha         1 QYH       0.127000
@<TRIPOS>BOND
     1     1     3 1   
     2     1    17 1   
     3     1    18 1   
     4     1    19 1   
     5     2    15 1   
     6     2    20 1   
     7     2    21 1   
     8     3     4 1   
     9     4     6 ar  
    10     4    12 ar  
    11     5    15 ar  
    12     5    16 ar  
    13     6     8 ar  
    14     6    22 1   
    15     7    16 1   
    16     7    23 1   
    17     7    24 1   
    18     8    10 ar  
    19     8    25 1   
    20     9    13 ar  
    21     9    16 ar  
    22    10    11 ar  
    23    10    13 1   
    24    11    12 ar  
    25    11    26 1   
    26    12    27 1   
    27    13    14 ar  
    28    14    15 ar  
    29    14    28 1   
@<TRIPOS>SUBSTRUCTURE
     1 QYH         1 TEMP              0 ****  ****    0 ROOT
