@<TRIPOS>MOLECULE
QYH
   28    29     1     0     0
SMALL
bcc


@<TRIPOS>ATOM
      1 C1          -3.5760   -10.2500    11.4430 c3         1 QYH       0.125700
      2 N1           4.1010   -12.1040    17.3480 nv         1 QYH      -0.967500
      3 O1          -3.2630   -10.8730    12.6730 os         1 QYH      -0.316900
      4 C2          -1.9740   -10.9750    13.0340 ca         1 QYH       0.155100
      5 N2           4.6720   -11.6640    15.1790 nb         1 QYH      -0.855000
      6 C3          -0.9030   -10.4890    12.2880 ca         1 QYH      -0.204000
      7 N3           5.2410   -11.2780    12.9990 nv         1 QYH      -0.944500
      8 C4           0.3930   -10.6520    12.7550 ca         1 QYH      -0.055500
      9 N4           3.0140   -11.2740    13.5170 nb         1 QYH      -0.820000
     10 C5           0.6630   -11.2830    13.9660 cp         1 QYH      -0.196500
     11 C6          -0.4240   -11.7690    14.6990 ca         1 QYH      -0.055500
     12 C7          -1.7190   -11.6230    14.2460 ca         1 QYH      -0.204000
     13 C8           2.0550   -11.4290    14.4380 cp         1 QYH       0.586800
     14 C9           2.3530   -11.6960    15.7600 ca         1 QYH      -0.490600
     15 C10          3.7150   -11.8140    16.0920 ca         1 QYH       0.744200
     16 C11          4.2700   -11.3980    13.9360 ca         1 QYH       0.936900
     17 H1          -4.6590   -10.2870    11.3460 h1         1 QYH       0.041700
     18 H2          -3.2560    -9.2050    11.4200 h1         1 QYH       0.041700
     19 H3          -3.1290   -10.7750    10.5950 h1         1 QYH       0.041700
     20 H4           5.0740   -12.0200    17.5910 hn         1 QYH       0.433800
     21 H5           3.4390   -12.0610    18.1030 hn         1 QYH       0.433800
     22 H6          -1.0550    -9.9820    11.3450 ha         1 QYH       0.140500
     23 H7           4.9940   -10.8480    12.1240 hn         1 QYH       0.430300
     24 H8           6.1840   -11.1270    13.3150 hn         1 QYH       0.430300
     25 H9           1.2130   -10.2710    12.1610 ha         1 QYH       0.142000
     26 H10         -0.2670   -12.2930    15.6320 ha         1 QYH       0.142000
     27 H11         -2.5450   -12.0160    14.8250 ha         1 QYH       0.140500
     28 H12          1.5950   -11.7910    16.5240 ha         1 QYH       0.145000
@<TRIPOS>BOND
     1     1     3 1   
     2     1    17 1   
     3     1    18 1   
     4     1    19 1   
     5     2    15 1   
     6     2    20 1   
     7     2    21 1   
     8     3     4 1   
     9     4     6 ar  
    10     4    12 ar  
    11     5    15 ar  
    12     5    16 ar  
    13     6     8 ar  
    14     6    22 1   
    15     7    16 1   
    16     7    23 1   
    17     7    24 1   
    18     8    10 ar  
    19     8    25 1   
    20     9    13 ar  
    21     9    16 ar  
    22    10    11 ar  
    23    10    13 1   
    24    11    12 ar  
    25    11    26 1   
    26    12    27 1   
    27    13    14 ar  
    28    14    15 ar  
    29    14    28 1   
@<TRIPOS>SUBSTRUCTURE
     1 QYH         1 TEMP              0 ****  ****    0 ROOT
