@<TRIPOS>MOLECULE
QYI
   43    46     1     0     0
SMALL
abcg2


@<TRIPOS>ATOM
      1 N1         -16.6100     4.3430    26.5350 nb         1 QYI      -0.645000
      2 C4         -22.5780     4.7320    31.5910 ca         1 QYI       0.161100
      3 C5         -22.9890     3.8500    32.5910 ca         1 QYI      -0.134000
      4 C6         -22.8650     2.4830    32.4180 ca         1 QYI      -0.058000
      5 C7         -22.2980     2.0070    31.2410 ca         1 QYI       0.088000
      6 C8         -21.9030     2.8720    30.2380 ca         1 QYI      -0.052000
      7 C10        -20.2610     5.0520    28.8260 c          1 QYI       0.574100
      8 C13        -16.2770     5.3360    25.7420 ca         1 QYI       0.355900
      9 C15        -16.7250     7.4810    24.5990 ca         1 QYI      -0.051000
     10 C17        -18.8100     8.5620    24.9960 ca         1 QYI       0.188000
     11 F          -19.6050     9.6310    24.7620 f          1 QYI      -0.178000
     12 C16        -17.5580     8.5420    24.3620 ca         1 QYI      -0.146000
     13 C18        -19.2560     7.5770    25.8290 ca         1 QYI      -0.155000
     14 C19        -18.4100     6.4700    26.0720 ca         1 QYI      -0.004000
     15 C14        -17.1260     6.4300    25.4580 ca         1 QYI      -0.106000
     16 C12        -17.8400     4.3640    27.1020 ca         1 QYI       0.332900
     17 C11        -18.7520     5.3750    26.9110 ca         1 QYI      -0.080000
     18 N          -20.0200     5.3320    27.5210 ns         1 QYI      -0.157000
     19 O2         -19.3990     4.7910    29.6510 o          1 QYI      -0.562100
     20 C1         -21.7480     5.1990    29.2290 c6         1 QYI       0.168300
     21 O          -22.6080     5.0570    28.0890 os         1 QYI      -0.476000
     22 C          -22.7930     3.7740    27.4910 c3         1 QYI       0.140900
     23 C9         -22.0810     4.2510    30.3730 ca         1 QYI      -0.160300
     24 O1         -22.6620     6.0600    31.8780 os         1 QYI      -0.343100
     25 C3         -21.7530     6.8810    31.1230 c6         1 QYI       0.159600
     26 C2         -21.9740     6.6700    29.6480 c6         1 QYI      -0.106400
     27 H1         -23.3830     4.2550    33.5140 ha         1 QYI       0.136000
     28 H2         -23.1760     1.7990    33.1950 ha         1 QYI       0.134000
     29 H3         -21.4440     2.4680    29.3480 ha         1 QYI       0.127000
     30 H4         -15.2940     5.3030    25.2830 h4         1 QYI       0.024100
     31 H5         -15.7490     7.4350    24.1340 ha         1 QYI       0.125000
     32 H6         -17.2760     9.3580    23.7100 ha         1 QYI       0.138000
     33 H7         -20.2290     7.6630    26.2920 ha         1 QYI       0.134000
     34 H8         -18.0950     3.5240    27.7330 h4         1 QYI       0.039100
     35 H9         -20.8270     5.5970    26.9730 hn         1 QYI       0.173000
     36 H10        -23.3290     3.9620    26.5620 h1         1 QYI       0.042700
     37 H11        -21.8430     3.2860    27.2590 h1         1 QYI       0.042700
     38 H12        -23.3920     3.1210    28.1260 h1         1 QYI       0.042700
     39 H13        -20.7300     6.6360    31.4230 h1         1 QYI       0.071700
     40 H14        -21.9720     7.9070    31.4120 h1         1 QYI       0.071700
     41 H15        -21.3340     7.3340    29.0670 hc         1 QYI       0.074700
     42 H16        -23.0100     6.9100    29.4070 hc         1 QYI       0.074700
     43 CL         -22.0690     0.2810    31.0290 cl         1 QYI      -0.209000
@<TRIPOS>BOND
     1     1     8 ar  
     2     1    16 ar  
     3     2     3 ar  
     4     2    23 ar  
     5     2    24 1   
     6     3     4 ar  
     7     3    27 1   
     8     4     5 ar  
     9     4    28 1   
    10     5     6 ar  
    11     5    43 1   
    12     6    23 ar  
    13     6    29 1   
    14     7    18 1   
    15     7    19 2   
    16     7    20 1   
    17     8    15 ar  
    18     8    30 1   
    19     9    12 ar  
    20     9    15 ar  
    21     9    31 1   
    22    10    11 1   
    23    10    12 ar  
    24    10    13 ar  
    25    12    32 1   
    26    13    14 ar  
    27    13    33 1   
    28    14    15 ar  
    29    14    17 ar  
    30    16    17 ar  
    31    16    34 1   
    32    17    18 1   
    33    18    35 1   
    34    20    21 1   
    35    20    23 1   
    36    20    26 1   
    37    21    22 1   
    38    22    36 1   
    39    22    37 1   
    40    22    38 1   
    41    24    25 1   
    42    25    26 1   
    43    25    39 1   
    44    25    40 1   
    45    26    41 1   
    46    26    42 1   
@<TRIPOS>SUBSTRUCTURE
     1 QYI         1 TEMP              0 ****  ****    0 ROOT
