@<TRIPOS>MOLECULE
QYI
   43    46     1     0     0
SMALL
No Charge or Current Charge


@<TRIPOS>ATOM
      1 N1         -17.0140     4.0890    25.9390 nb         1 QYI      -0.645000
      2 C4         -22.2220     5.2230    30.9810 ca         1 QYI       0.161100
      3 C5         -21.9510     4.8410    32.3040 ca         1 QYI      -0.134000
      4 C6         -21.4810     3.5490    32.5860 ca         1 QYI      -0.058000
      5 C7         -21.2670     2.6480    31.5350 ca         1 QYI       0.088000
      6 C8         -21.5520     3.0210    30.2110 ca         1 QYI      -0.052000
      7 C10        -21.1820     4.3550    27.5390 c          1 QYI       0.574100
      8 C13        -16.3950     5.2650    25.6960 ca         1 QYI       0.355900
      9 C15        -16.2610     7.7040    25.7460 ca         1 QYI      -0.051000
     10 C17        -18.1050     8.9890    26.6640 ca         1 QYI       0.188000
     11 F          -18.6580    10.1830    26.9710 f          1 QYI      -0.178000
     12 C16        -16.8360     8.9430    26.0710 ca         1 QYI      -0.146000
     13 C18        -18.8090     7.8060    26.9400 ca         1 QYI      -0.155000
     14 C19        -18.2380     6.5530    26.6220 ca         1 QYI      -0.004000
     15 C14        -16.9610     6.5120    26.0200 ca         1 QYI      -0.106000
     16 C12        -18.2380     4.1270    26.5160 ca         1 QYI       0.332900
     17 C11        -18.9010     5.3270    26.8750 ca         1 QYI      -0.080000
     18 N          -20.1810     5.3220    27.5050 ns         1 QYI      -0.157000
     19 O2         -21.0960     3.3150    26.8930 o          1 QYI      -0.562100
     20 C1         -22.4420     4.7000    28.4410 c6         1 QYI       0.168300
     21 O          -23.6620     3.9840    28.0380 os         1 QYI      -0.476000
     22 C          -23.8130     2.5570    28.2150 c3         1 QYI       0.140900
     23 C9         -22.0770     4.3040    29.9100 ca         1 QYI      -0.160300
     24 O1         -22.5770     6.5270    30.7520 os         1 QYI      -0.343100
     25 C3         -22.2380     7.0900    29.4790 c6         1 QYI       0.159600
     26 C2         -22.8250     6.2200    28.3560 c6         1 QYI      -0.106400
     27 H1         -22.0810     5.5590    33.1100 ha         1 QYI       0.136000
     28 H2         -21.2610     3.2570    33.6100 ha         1 QYI       0.134000
     29 H3         -21.3720     2.2940    29.4240 ha         1 QYI       0.127000
     30 H4         -15.4120     5.2020    25.2300 h4         1 QYI       0.024100
     31 H5         -15.2760     7.6700    25.2830 ha         1 QYI       0.125000
     32 H6         -16.3020     9.8670    25.8620 ha         1 QYI       0.138000
     33 H7         -19.7920     7.8860    27.3920 ha         1 QYI       0.134000
     34 H8         -18.6780     3.1530    26.7170 h4         1 QYI       0.039100
     35 H9         -20.3790     6.1520    28.0450 hn         1 QYI       0.173000
     36 H10        -24.7470     2.2210    27.7460 h1         1 QYI       0.042700
     37 H11        -22.9950     1.9930    27.7530 h1         1 QYI       0.042700
     38 H12        -23.8740     2.2930    29.2780 h1         1 QYI       0.042700
     39 H13        -21.1430     7.1520    29.4010 h1         1 QYI       0.071700
     40 H14        -22.6400     8.1120    29.4210 h1         1 QYI       0.071700
     41 H15        -22.5600     6.6370    27.3740 hc         1 QYI       0.074700
     42 H16        -23.9170     6.3180    28.4170 hc         1 QYI       0.074700
     43 Cl         -20.6430     1.0390    31.8740 cl         1 QYI      -0.209000
@<TRIPOS>BOND
     1     1     8 ar  
     2     1    16 ar  
     3     2     3 ar  
     4     2    23 ar  
     5     2    24 1   
     6     3     4 ar  
     7     3    27 1   
     8     4     5 ar  
     9     4    28 1   
    10     5     6 ar  
    11     5    43 1   
    12     6    23 ar  
    13     6    29 1   
    14     7    18 1   
    15     7    19 2   
    16     7    20 1   
    17     8    15 ar  
    18     8    30 1   
    19     9    12 ar  
    20     9    15 ar  
    21     9    31 1   
    22    10    11 1   
    23    10    12 ar  
    24    10    13 ar  
    25    12    32 1   
    26    13    14 ar  
    27    13    33 1   
    28    14    15 ar  
    29    14    17 ar  
    30    16    17 ar  
    31    16    34 1   
    32    17    18 1   
    33    18    35 1   
    34    20    21 1   
    35    20    23 1   
    36    20    26 1   
    37    21    22 1   
    38    22    36 1   
    39    22    37 1   
    40    22    38 1   
    41    24    25 1   
    42    25    26 1   
    43    25    39 1   
    44    25    40 1   
    45    26    41 1   
    46    26    42 1   
@<TRIPOS>SUBSTRUCTURE
     1 QYI         1 TEMP              0 ****  ****    0 ROOT
