@<TRIPOS>MOLECULE
QYJ
   49    52     1     0     0
SMALL
abcg2


@<TRIPOS>ATOM
      1 C18        -49.7700   -29.4050     6.7170 ca         1 QYJ      -0.005000
      2 C16        -49.9150   -29.5230     4.3140 ca         1 QYJ      -0.041500
      3 C17        -50.5410   -29.4760     5.5500 ca         1 QYJ      -0.173000
      4 C15        -48.5260   -29.5160     4.1890 ca         1 QYJ      -0.159600
      5 C14        -47.9280   -29.5540     2.8200 c          1 QYJ       0.606700
      6 C12        -45.8640   -29.9460     1.5280 c5         1 QYJ       0.165000
      7 C11        -45.6630   -31.3270     0.9380 ca         1 QYJ      -0.042300
      8 C10        -46.5480   -32.3950     0.9070 ca         1 QYJ      -0.117000
      9 C20        -51.6180   -29.3060     8.4030 c          1 QYJ       0.660100
     10 C02        -43.7250   -29.6750     3.0350 c          1 QYJ       0.718000
     11 C03        -44.4200   -29.3980     1.6780 c5         1 QYJ      -0.204700
     12 C04        -43.6380   -30.1200     0.5440 c5         1 QYJ      -0.004100
     13 C05        -44.4000   -31.4060     0.3640 ca         1 QYJ      -0.087300
     14 C06        -44.0020   -32.5790    -0.2680 ca         1 QYJ       0.126100
     15 C08        -44.8790   -33.6660    -0.3070 ca         1 QYJ      -0.211000
     16 C09        -46.1390   -33.5700     0.2780 ca         1 QYJ      -0.094000
     17 C22        -53.0760   -29.0630    10.3430 cx         1 QYJ       0.066700
     18 C23        -53.2460   -29.5980    11.7320 cx         1 QYJ      -0.136400
     19 C24        -53.8920   -30.3040    10.5690 cx         1 QYJ      -0.136400
     20 C26        -48.3710   -29.3910     6.5990 ca         1 QYJ      -0.173000
     21 C27        -47.7640   -29.4490     5.3590 ca         1 QYJ      -0.041500
     22 N13        -46.6340   -29.9100     2.7490 ns         1 QYJ      -0.474900
     23 N19        -50.2950   -29.3390     8.0060 ns         1 QYJ      -0.162000
     24 N21        -51.7770   -29.1840     9.7520 ns         1 QYJ      -0.509900
     25 O01        -42.6700   -29.0310     3.2400 o          1 QYJ      -0.730000
     26 O07        -42.7520   -32.6200    -0.8220 oh         1 QYJ      -0.540100
     27 O25        -52.5670   -29.3930     7.6280 o          1 QYJ      -0.619100
     28 O28        -48.6010   -29.2680     1.8190 o          1 QYJ      -0.662100
     29 O29        -44.2320   -30.5240     3.8210 o          1 QYJ      -0.730000
     30 H161       -50.5170   -29.5700     3.4170 ha         1 QYJ       0.140500
     31 H171       -51.6150   -29.4930     5.6190 ha         1 QYJ       0.124500
     32 H121       -46.4000   -29.3330     0.7990 h1         1 QYJ       0.062700
     33 H101       -47.5260   -32.3220     1.3660 ha         1 QYJ       0.118000
     34 H031       -44.4050   -28.3190     1.5300 hc         1 QYJ       0.053700
     35 H041       -43.6600   -29.5290    -0.3780 hc         1 QYJ       0.051700
     36 H042       -42.5890   -30.2700     0.7990 hc         1 QYJ       0.051700
     37 H081       -44.5660   -34.5850    -0.7910 ha         1 QYJ       0.092000
     38 H091       -46.8030   -34.4250     0.2410 ha         1 QYJ       0.094000
     39 H221       -53.6160   -28.1590    10.0870 h1         1 QYJ       0.083700
     40 H231       -52.3850   -30.0690    12.1880 hc         1 QYJ       0.076700
     41 H232       -53.8720   -29.0360    12.4120 hc         1 QYJ       0.076700
     42 H241       -53.4550   -31.2390    10.2480 hc         1 QYJ       0.076700
     43 H242       -54.9640   -30.2280    10.4480 hc         1 QYJ       0.076700
     44 H261       -47.7640   -29.3260     7.4940 ha         1 QYJ       0.124500
     45 H271       -46.6830   -29.4180     5.3170 ha         1 QYJ       0.140500
     46 H131       -46.1060   -30.2200     3.5590 hn         1 QYJ       0.374500
     47 H191       -49.6040   -29.2960     8.7400 hn         1 QYJ       0.141000
     48 H211       -50.9800   -28.9540    10.3250 hn         1 QYJ       0.310500
     49 H071       -42.5850   -33.4970    -1.1930 ho         1 QYJ       0.443000
@<TRIPOS>BOND
     1     1     3 ar  
     2     1    20 ar  
     3     1    23 1   
     4     2     3 ar  
     5     2     4 ar  
     6     2    30 1   
     7     3    31 1   
     8     4     5 1   
     9     4    21 ar  
    10     5    22 1   
    11     5    28 2   
    12     6     7 1   
    13     6    11 1   
    14     6    22 1   
    15     6    32 1   
    16     7     8 ar  
    17     7    13 ar  
    18     8    16 ar  
    19     8    33 1   
    20     9    23 1   
    21     9    24 1   
    22     9    27 2   
    23    10    11 1   
    24    10    25 1   
    25    10    29 1   
    26    11    12 1   
    27    11    34 1   
    28    12    13 1   
    29    12    35 1   
    30    12    36 1   
    31    13    14 ar  
    32    14    15 ar  
    33    14    26 1   
    34    15    16 ar  
    35    15    37 1   
    36    16    38 1   
    37    17    18 1   
    38    17    19 1   
    39    17    24 1   
    40    17    39 1   
    41    18    19 1   
    42    18    40 1   
    43    18    41 1   
    44    19    42 1   
    45    19    43 1   
    46    20    21 ar  
    47    20    44 1   
    48    21    45 1   
    49    22    46 1   
    50    23    47 1   
    51    24    48 1   
    52    26    49 1   
@<TRIPOS>SUBSTRUCTURE
     1 QYJ         1 TEMP              0 ****  ****    0 ROOT
