@<TRIPOS>MOLECULE
QYJ
   49    52     1     0     0
SMALL
No Charge or Current Charge


@<TRIPOS>ATOM
      1 C18        -49.8940   -29.5860     6.6400 ca         1 QYJ      -0.005000
      2 C16        -49.6790   -28.6310     4.4000 ca         1 QYJ      -0.041500
      3 C17        -50.3050   -28.6630     5.6580 ca         1 QYJ      -0.173000
      4 C15        -48.6280   -29.5210     4.0870 ca         1 QYJ      -0.159600
      5 C14        -47.9820   -29.4530     2.7160 c          1 QYJ       0.606700
      6 C12        -46.2560   -30.3040     1.1910 c5         1 QYJ       0.165000
      7 C11        -45.5640   -31.5760     0.7750 ca         1 QYJ      -0.042300
      8 C10        -46.1300   -32.8620     0.7350 ca         1 QYJ      -0.117000
      9 C20        -51.5120   -28.9830     8.5410 c          1 QYJ       0.660100
     10 C02        -44.5210   -29.2410     2.8650 c          1 QYJ       0.718000
     11 C03        -45.0150   -29.3270     1.3920 c5         1 QYJ      -0.204700
     12 C04        -43.8520   -29.9140     0.4920 c5         1 QYJ      -0.004100
     13 C05        -44.2560   -31.3640     0.3820 ca         1 QYJ      -0.087300
     14 C06        -43.4580   -32.4330    -0.0640 ca         1 QYJ       0.126100
     15 C08        -44.0070   -33.7280    -0.1050 ca         1 QYJ      -0.211000
     16 C09        -45.3430   -33.9430     0.2950 ca         1 QYJ      -0.094000
     17 C22        -52.7540   -28.8710    10.6940 cx         1 QYJ       0.066700
     18 C23        -53.0620   -29.6240    11.9650 cx         1 QYJ      -0.136400
     19 C24        -54.0470   -29.6380    10.8220 cx         1 QYJ      -0.136400
     20 C26        -48.8470   -30.4720     6.3340 ca         1 QYJ      -0.173000
     21 C27        -48.2170   -30.4450     5.0770 ca         1 QYJ      -0.041500
     22 N13        -46.9800   -30.3700     2.4630 ns         1 QYJ      -0.474900
     23 N19        -50.4780   -29.6770     7.9330 ns         1 QYJ      -0.162000
     24 N21        -51.7420   -29.4110     9.8290 ns         1 QYJ      -0.509900
     25 O01        -44.4940   -28.1440     3.4010 o          1 QYJ      -0.730000
     26 O07        -42.1690   -32.2280    -0.4590 oh         1 QYJ      -0.540100
     27 O25        -52.1680   -28.0880     8.0260 o          1 QYJ      -0.619100
     28 O28        -48.3370   -28.6320     1.8790 o          1 QYJ      -0.662100
     29 O29        -44.1510   -30.2490     3.4510 o          1 QYJ      -0.730000
     30 H161       -50.0200   -27.9060     3.6620 ha         1 QYJ       0.140500
     31 H171       -51.1080   -27.9580     5.8470 ha         1 QYJ       0.124500
     32 H121       -46.8900   -29.9680     0.3590 h1         1 QYJ       0.062700
     33 H101       -47.1630   -33.0200     1.0360 ha         1 QYJ       0.118000
     34 H031       -45.2770   -28.3120     1.0740 hc         1 QYJ       0.053700
     35 H041       -43.8330   -29.4380    -0.4950 hc         1 QYJ       0.051700
     36 H042       -42.8600   -29.7750     0.9370 hc         1 QYJ       0.051700
     37 H081       -43.4090   -34.5690    -0.4460 ha         1 QYJ       0.092000
     38 H091       -45.7670   -34.9440     0.2590 ha         1 QYJ       0.094000
     39 H221       -52.7950   -27.7800    10.7210 h1         1 QYJ       0.083700
     40 H231       -52.5090   -30.5380    12.1690 hc         1 QYJ       0.076700
     41 H232       -53.3160   -29.0400    12.8460 hc         1 QYJ       0.076700
     42 H241       -54.1530   -30.5580    10.2530 hc         1 QYJ       0.076700
     43 H242       -54.9630   -29.0630    10.9330 hc         1 QYJ       0.076700
     44 H261       -48.5130   -31.1920     7.0780 ha         1 QYJ       0.124500
     45 H271       -47.4100   -31.1520     4.8970 ha         1 QYJ       0.140500
     46 H131       -46.7230   -31.0020     3.2070 hn         1 QYJ       0.374500
     47 H191       -50.0550   -30.3860     8.5170 hn         1 QYJ       0.141000
     48 H211       -51.1450   -30.1540    10.1730 hn         1 QYJ       0.310500
     49 H071       -41.7920   -33.0910    -0.7300 ho         1 QYJ       0.443000
@<TRIPOS>BOND
     1     1     3 ar  
     2     1    20 ar  
     3     1    23 1   
     4     2     3 ar  
     5     2     4 ar  
     6     2    30 1   
     7     3    31 1   
     8     4     5 1   
     9     4    21 ar  
    10     5    22 1   
    11     5    28 2   
    12     6     7 1   
    13     6    11 1   
    14     6    22 1   
    15     6    32 1   
    16     7     8 ar  
    17     7    13 ar  
    18     8    16 ar  
    19     8    33 1   
    20     9    23 1   
    21     9    24 1   
    22     9    27 2   
    23    10    11 1   
    24    10    25 1   
    25    10    29 1   
    26    11    12 1   
    27    11    34 1   
    28    12    13 1   
    29    12    35 1   
    30    12    36 1   
    31    13    14 ar  
    32    14    15 ar  
    33    14    26 1   
    34    15    16 ar  
    35    15    37 1   
    36    16    38 1   
    37    17    18 1   
    38    17    19 1   
    39    17    24 1   
    40    17    39 1   
    41    18    19 1   
    42    18    40 1   
    43    18    41 1   
    44    19    42 1   
    45    19    43 1   
    46    20    21 ar  
    47    20    44 1   
    48    21    45 1   
    49    22    46 1   
    50    23    47 1   
    51    24    48 1   
    52    26    49 1   
@<TRIPOS>SUBSTRUCTURE
     1 QYJ         1 TEMP              0 ****  ****    0 ROOT
