@<TRIPOS>MOLECULE
QYK
   20    21     1     0     0
SMALL
No Charge or Current Charge


@<TRIPOS>ATOM
      1 C1          43.1160     1.7300    14.2490 c3         1 QYK       0.055900
      2 N1          43.0820     3.2020    14.3000 na         1 QYK      -0.158400
      3 C2          42.5700     4.0810    13.3290 cc         1 QYK      -0.008400
      4 Br1         41.7740     3.5730    11.6880 br         1 QYK       0.008300
      5 C3          42.7790     5.3590    13.8260 cd         1 QYK       0.009100
      6 C4          42.3980     6.5450    13.1370 ch         1 QYK       0.316700
      7 N2          42.0880     7.5360    12.6010 n1         1 QYK      -0.455000
      8 C5          43.4330     5.2420    15.1190 ca         1 QYK      -0.234800
      9 C6          43.6070     3.9020    15.3780 ca         1 QYK       0.160500
     10 N3          44.1980     3.4830    16.5150 nb         1 QYK      -0.233000
     11 C7          44.6000     4.4570    17.3660 ca         1 QYK       0.192900
     12 N4          44.4670     5.7940    17.1890 nb         1 QYK      -0.300000
     13 C8          43.8770     6.1860    16.0510 ca         1 QYK       0.447900
     14 N5          43.7520     7.5270    15.8880 nv         1 QYK      -1.067900
     15 H1          42.9710     1.3160    15.2550 h1         1 QYK       0.067700
     16 H2          42.3180     1.3570    13.5970 h1         1 QYK       0.067700
     17 H3          44.0860     1.3990    13.8590 h1         1 QYK       0.067700
     18 H4          45.0790     4.1320    18.2880 h5         1 QYK       0.049100
     19 H5          43.9100     8.1210    16.6990 hn         1 QYK       0.507000
     20 H6          43.1070     7.8820    15.1870 hn         1 QYK       0.507000
@<TRIPOS>BOND
     1     1     2 1   
     2     1    15 1   
     3     1    16 1   
     4     1    17 1   
     5     2     3 1   
     6     2     9 1   
     7     3     4 1   
     8     3     5 2   
     9     5     6 1   
    10     5     8 1   
    11     6     7 3   
    12     8     9 ar  
    13     8    13 ar  
    14     9    10 ar  
    15    10    11 ar  
    16    11    12 ar  
    17    11    18 1   
    18    12    13 ar  
    19    13    14 1   
    20    14    19 1   
    21    14    20 1   
@<TRIPOS>SUBSTRUCTURE
     1 QYK         1 TEMP              0 ****  ****    0 ROOT
