@<TRIPOS>MOLECULE
QYK
   20    21     1     0     0
SMALL
bcc


@<TRIPOS>ATOM
      1 C1          43.1500     1.7700    14.2410 c3         1 QYK       0.026600
      2 N1          43.1170     3.2160    14.3190 na         1 QYK      -0.129100
      3 C2          42.6390     4.0720    13.3800 cc         1 QYK      -0.008400
      4 BR1         41.9160     3.4860    11.7900 br         1 QYK       0.008300
      5 C3          42.7780     5.3750    13.8000 cd         1 QYK       0.009100
      6 C4          42.3910     6.5120    13.0680 ch         1 QYK       0.227500
      7 N2          42.0850     7.4580    12.4820 n1         1 QYK      -0.365800
      8 C5          43.3840     5.3070    15.0940 ca         1 QYK      -0.365400
      9 C6          43.5770     3.9580    15.3740 ca         1 QYK       0.488800
     10 N3          44.1180     3.4580    16.4800 nb         1 QYK      -0.759000
     11 C7          44.4750     4.3950    17.3370 ca         1 QYK       0.718900
     12 N4          44.3530     5.7120    17.2080 nb         1 QYK      -0.826000
     13 C8          43.8090     6.2080    16.0940 ca         1 QYK       0.776200
     14 N5          43.6920     7.5320    15.9840 nv         1 QYK      -0.957500
     15 H1          43.5880     1.3940    15.1600 h1         1 QYK       0.067700
     16 H2          42.1440     1.3690    14.1390 h1         1 QYK       0.067700
     17 H3          43.7600     1.4450    13.4000 h1         1 QYK       0.067700
     18 H4          44.9240     4.0540    18.2640 h5         1 QYK       0.049100
     19 H5          44.0160     8.1220    16.7320 hn         1 QYK       0.451800
     20 H6          43.2980     7.9790    15.1750 hn         1 QYK       0.451800
@<TRIPOS>BOND
     1     1     2 1   
     2     1    15 1   
     3     1    16 1   
     4     1    17 1   
     5     2     3 1   
     6     2     9 1   
     7     3     4 1   
     8     3     5 2   
     9     5     6 1   
    10     5     8 1   
    11     6     7 3   
    12     8     9 ar  
    13     8    13 ar  
    14     9    10 ar  
    15    10    11 ar  
    16    11    12 ar  
    17    11    18 1   
    18    12    13 ar  
    19    13    14 1   
    20    14    19 1   
    21    14    20 1   
@<TRIPOS>SUBSTRUCTURE
     1 QYK         1 TEMP              0 ****  ****    0 ROOT
