@<TRIPOS>MOLECULE
QYM
   69    73     1     0     0
SMALL
abcg2


@<TRIPOS>ATOM
      1 CAA         -3.1950     1.9540    -1.1610 ca         1 QYM      -0.072000
      2 CAB         -4.4160     2.5120    -1.5040 ca         1 QYM      -0.207000
      3 CAC         -5.5050     2.3500    -0.6560 ca         1 QYM       0.137100
      4 CAD         -5.3330     1.6420     0.5240 ca         1 QYM      -0.151000
      5 CAE         -4.1030     1.0850     0.8660 ca         1 QYM      -0.034300
      6 CAF         -3.0010     1.2190     0.0090 ca         1 QYM      -0.100300
      7 CAG         -4.0210     0.3300     2.1670 c6         1 QYM      -0.034100
      8 CAH         -2.5940     0.0640     2.6140 c6         1 QYM      -0.070400
      9 CAI         -1.7320    -0.4280     1.4590 c6         1 QYM      -0.040700
     10 CAJ         -1.6230     0.6790     0.3900 c6         1 QYM       0.001600
     11 CAK         -2.2680    -1.6930     0.8110 c5         1 QYM      -0.068700
     12 CAL         -1.3730    -2.2160    -0.3190 c5         1 QYM      -0.033000
     13 CAM         -1.2720    -1.1250    -1.3780 c6         1 QYM      -0.052400
     14 CAN         -0.7770     0.2280    -0.8230 c6         1 QYM       0.001600
     15 CAO         -2.5500    -2.9320     1.6620 c5         1 QYM      -0.064400
     16 CAP         -2.6140    -4.0740     0.6200 c5         1 QYM      -0.115400
     17 CAQ         -2.2070    -3.4370    -0.7290 c5         1 QYM       0.167300
     18 CAS          0.0050    -2.6900     0.1590 c3         1 QYM      -0.074100
     19 CAU          0.7260     0.2750    -0.5860 ca         1 QYM      -0.103300
     20 CAV          1.5840    -0.0590    -1.6390 ca         1 QYM      -0.077500
     21 CAW          2.9590    -0.0290    -1.5090 ca         1 QYM      -0.172000
     22 CAX          3.5450     0.3460    -0.2980 ca         1 QYM       0.140100
     23 CAY          2.7150     0.7080     0.7560 ca         1 QYM      -0.172000
     24 CAZ          1.3310     0.6740     0.5980 ca         1 QYM      -0.077500
     25 CBB          5.5280     0.6840     0.9660 c3         1 QYM       0.165600
     26 CBC          7.0240     0.5620     0.7830 c3         1 QYM       0.166800
     27 CBE          7.4690     2.8240     0.0710 c3         1 QYM       0.149600
     28 CBF          8.9400     1.0550    -0.5450 c3         1 QYM       0.149600
     29 NBD          7.5710     1.4170    -0.2500 n3         1 QYM      -0.701600
     30 OAR         -6.7270     2.8590    -0.9230 oh         1 QYM      -0.535100
     31 OAT         -1.5040    -4.2920    -1.5980 oh         1 QYM      -0.651000
     32 OBA          4.8920     0.3350    -0.2490 os         1 QYM      -0.327100
     33 H1          -2.3740     2.1190    -1.8450 ha         1 QYM       0.111000
     34 H2          -4.5100     3.0730    -2.4270 ha         1 QYM       0.112000
     35 H3          -6.1750     1.5250     1.1990 ha         1 QYM       0.125000
     36 H4          -4.5600     0.8820     2.9410 hc         1 QYM       0.050200
     37 H5          -4.5630    -0.6150     2.0580 hc         1 QYM       0.050200
     38 H6          -2.1550     0.9810     3.0200 hc         1 QYM       0.042700
     39 H7          -2.5920    -0.6630     3.4300 hc         1 QYM       0.042700
     40 H8          -0.7340    -0.6300     1.8580 hc         1 QYM       0.056700
     41 H9          -1.1030     1.5270     0.8520 hc         1 QYM       0.056700
     42 H10         -3.2200    -1.4270     0.3290 hc         1 QYM       0.052700
     43 H11         -0.6460    -1.4430    -2.2160 hc         1 QYM       0.046700
     44 H12         -2.2720    -0.9620    -1.7950 hc         1 QYM       0.046700
     45 H13         -0.9360     0.9490    -1.6290 hc         1 QYM       0.050700
     46 H14         -1.7480    -3.1000     2.3860 hc         1 QYM       0.042200
     47 H15         -3.4740    -2.8460     2.2350 hc         1 QYM       0.042200
     48 H16         -1.9230    -4.8810     0.8710 hc         1 QYM       0.045200
     49 H17         -3.6090    -4.5180     0.5610 hc         1 QYM       0.045200
     50 H18         -3.1160    -3.0650    -1.2280 h1         1 QYM       0.027700
     51 H19          0.5790    -1.9100     0.6520 hc         1 QYM       0.038033
     52 H20         -0.0650    -3.5280     0.8550 hc         1 QYM       0.038033
     53 H21          0.6050    -3.0260    -0.6870 hc         1 QYM       0.038033
     54 H22          1.1730    -0.3510    -2.5980 ha         1 QYM       0.110500
     55 H23          3.5900    -0.2960    -2.3480 ha         1 QYM       0.120000
     56 H24          3.1150     1.0200     1.7110 ha         1 QYM       0.120000
     57 H25          0.7400     0.9690     1.4560 ha         1 QYM       0.110500
     58 H26          5.2250     0.0060     1.7730 h1         1 QYM       0.032700
     59 H27          5.2420     1.6950     1.2740 h1         1 QYM       0.032700
     60 H28          7.4840     0.7520     1.7700 h1         1 QYM       0.040200
     61 H29          7.2610    -0.4750     0.5310 h1         1 QYM       0.040200
     62 H30          7.8890     3.4170    -0.7420 h1         1 QYM       0.030367
     63 H31          6.4280     3.1300     0.1840 h1         1 QYM       0.030367
     64 H32          8.0010     3.1010     0.9950 h1         1 QYM       0.030367
     65 H33          9.6210     1.1770     0.3120 h1         1 QYM       0.030367
     66 H34          8.9930     0.0120    -0.8640 h1         1 QYM       0.030367
     67 H35          9.3210     1.6720    -1.3600 h1         1 QYM       0.030367
     68 H37         -6.7150     3.3300    -1.7630 ho         1 QYM       0.463000
     69 H38         -2.0850    -5.0210    -1.8340 ho         1 QYM       0.439000
@<TRIPOS>BOND
     1     1     2 ar  
     2     1     6 ar  
     3     1    33 1   
     4     2     3 ar  
     5     2    34 1   
     6     3     4 ar  
     7     3    30 1   
     8     4     5 ar  
     9     4    35 1   
    10     5     6 ar  
    11     5     7 1   
    12     6    10 1   
    13     7     8 1   
    14     7    36 1   
    15     7    37 1   
    16     8     9 1   
    17     8    38 1   
    18     8    39 1   
    19     9    10 1   
    20     9    11 1   
    21     9    40 1   
    22    10    14 1   
    23    10    41 1   
    24    11    12 1   
    25    11    15 1   
    26    11    42 1   
    27    12    13 1   
    28    12    17 1   
    29    12    18 1   
    30    13    14 1   
    31    13    43 1   
    32    13    44 1   
    33    14    19 1   
    34    14    45 1   
    35    15    16 1   
    36    15    46 1   
    37    15    47 1   
    38    16    17 1   
    39    16    48 1   
    40    16    49 1   
    41    17    31 1   
    42    17    50 1   
    43    18    51 1   
    44    18    52 1   
    45    18    53 1   
    46    19    20 ar  
    47    19    24 ar  
    48    20    21 ar  
    49    20    54 1   
    50    21    22 ar  
    51    21    55 1   
    52    22    23 ar  
    53    22    32 1   
    54    23    24 ar  
    55    23    56 1   
    56    24    57 1   
    57    25    26 1   
    58    25    32 1   
    59    25    58 1   
    60    25    59 1   
    61    26    29 1   
    62    26    60 1   
    63    26    61 1   
    64    27    29 1   
    65    27    62 1   
    66    27    63 1   
    67    27    64 1   
    68    28    29 1   
    69    28    65 1   
    70    28    66 1   
    71    28    67 1   
    72    30    68 1   
    73    31    69 1   
@<TRIPOS>SUBSTRUCTURE
     1 QYM         1 TEMP              0 ****  ****    0 ROOT
