@<TRIPOS>MOLECULE
QYM
   69    73     1     0     0
SMALL
No Charge or Current Charge


@<TRIPOS>ATOM
      1 CAA         -3.2540     2.0680    -1.1720 ca         1 QYM      -0.072000
      2 CAB         -4.5060     2.6010    -1.5200 ca         1 QYM      -0.207000
      3 CAC         -5.6140     2.3820    -0.6980 ca         1 QYM       0.137100
      4 CAD         -5.4670     1.6520     0.4850 ca         1 QYM      -0.151000
      5 CAE         -4.2170     1.1170     0.8520 ca         1 QYM      -0.034300
      6 CAF         -3.0880     1.2840    -0.0020 ca         1 QYM      -0.100300
      7 CAG         -4.1420     0.3630     2.1840 c6         1 QYM      -0.034100
      8 CAH         -2.7040     0.0600     2.6480 c6         1 QYM      -0.070400
      9 CAI         -1.8130    -0.4240     1.4820 c6         1 QYM      -0.040700
     10 CAJ         -1.6890     0.7080     0.3950 c6         1 QYM       0.001600
     11 CAK         -2.3300    -1.7390     0.8220 c5         1 QYM      -0.068700
     12 CAL         -1.4070    -2.2620    -0.3120 c5         1 QYM      -0.033000
     13 CAM         -1.2890    -1.1430    -1.3900 c6         1 QYM      -0.052400
     14 CAN         -0.7740     0.2250    -0.8120 c6         1 QYM       0.001600
     15 CAO         -2.5160    -3.0060     1.7000 c5         1 QYM      -0.064400
     16 CAP         -2.6750    -4.1500     0.6360 c5         1 QYM      -0.115400
     17 CAQ         -2.3230    -3.4940    -0.7460 c5         1 QYM       0.167300
     18 CAS          0.0260    -2.7330     0.1230 c3         1 QYM      -0.074100
     19 CAU          0.7640     0.2610    -0.5760 ca         1 QYM      -0.103300
     20 CAV          1.6160    -0.0420    -1.6620 ca         1 QYM      -0.077500
     21 CAW          3.0130    -0.0210    -1.5140 ca         1 QYM      -0.172000
     22 CAX          3.5940     0.3160    -0.2850 ca         1 QYM       0.140100
     23 CAY          2.7600     0.6450     0.8020 ca         1 QYM      -0.172000
     24 CAZ          1.3620     0.6250     0.6560 ca         1 QYM      -0.077500
     25 CBB          5.6630     0.6560     1.0200 c3         1 QYM       0.165600
     26 CBC          7.1950     0.5580     0.7800 c3         1 QYM       0.166800
     27 CBE          7.5510     2.8960    -0.0050 c3         1 QYM       0.149600
     28 CBF          9.1880     1.1500    -0.5500 c3         1 QYM       0.149600
     29 NBD          7.7680     1.4550    -0.2690 n3         1 QYM      -0.701600
     30 OAR         -6.8300     2.8970    -1.0330 oh         1 QYM      -0.535100
     31 OAT         -1.7420    -4.4600    -1.6590 oh         1 QYM      -0.651000
     32 OBA          4.9710     0.3190    -0.1990 os         1 QYM      -0.327100
     33 H1          -2.4190     2.3000    -1.8240 ha         1 QYM       0.111000
     34 H2          -4.6020     3.1900    -2.4290 ha         1 QYM       0.112000
     35 H3          -6.3300     1.5070     1.1310 ha         1 QYM       0.125000
     36 H4          -4.6540     0.9400     2.9660 hc         1 QYM       0.050200
     37 H5          -4.7040    -0.5770     2.0940 hc         1 QYM       0.050200
     38 H6          -2.2660     0.9690     3.0820 hc         1 QYM       0.042700
     39 H7          -2.7200    -0.6830     3.4570 hc         1 QYM       0.042700
     40 H8          -0.8240    -0.6300     1.9060 hc         1 QYM       0.056700
     41 H9          -1.1870     1.5650     0.8610 hc         1 QYM       0.056700
     42 H10         -3.3050    -1.4720     0.3940 hc         1 QYM       0.052700
     43 H11         -0.6660    -1.4880    -2.2250 hc         1 QYM       0.046700
     44 H12         -2.2810    -0.9720    -1.8290 hc         1 QYM       0.046700
     45 H13         -0.8900     0.9390    -1.6300 hc         1 QYM       0.050700
     46 H14         -1.6530    -3.1780     2.3540 hc         1 QYM       0.042200
     47 H15         -3.3940    -2.9280     2.3510 hc         1 QYM       0.042200
     48 H16         -2.0120    -4.9900     0.8740 hc         1 QYM       0.045200
     49 H17         -3.6950    -4.5520     0.6280 hc         1 QYM       0.045200
     50 H18         -3.2480    -3.1070    -1.1970 h1         1 QYM       0.027700
     51 H19          0.5460    -1.9980     0.7420 hc         1 QYM       0.038033
     52 H20          0.0080    -3.6620     0.7040 hc         1 QYM       0.038033
     53 H21          0.6560    -2.9300    -0.7520 hc         1 QYM       0.038033
     54 H22          1.1990    -0.2910    -2.6340 ha         1 QYM       0.110500
     55 H23          3.6490    -0.2640    -2.3610 ha         1 QYM       0.120000
     56 H24          3.1760     0.9210     1.7670 ha         1 QYM       0.120000
     57 H25          0.7660     0.8940     1.5220 ha         1 QYM       0.110500
     58 H26          5.3880    -0.0430     1.8200 h1         1 QYM       0.032700
     59 H27          5.4020     1.6700     1.3500 h1         1 QYM       0.032700
     60 H28          7.6950     0.7530     1.7380 h1         1 QYM       0.040200
     61 H29          7.4150    -0.4870     0.5230 h1         1 QYM       0.040200
     62 H30          7.9810     3.5070    -0.8100 h1         1 QYM       0.030367
     63 H31          6.4810     3.1330     0.0510 h1         1 QYM       0.030367
     64 H32          8.0220     3.1970     0.9410 h1         1 QYM       0.030367
     65 H33          9.8130     1.3490     0.3310 h1         1 QYM       0.030367
     66 H34          9.3120     0.0940    -0.8280 h1         1 QYM       0.030367
     67 H35          9.5600     1.7630    -1.3820 h1         1 QYM       0.030367
     68 H37         -6.7360     3.3780    -1.8830 ho         1 QYM       0.463000
     69 H38         -2.4080    -5.1710    -1.7770 ho         1 QYM       0.439000
@<TRIPOS>BOND
     1     1     2 ar  
     2     1     6 ar  
     3     1    33 1   
     4     2     3 ar  
     5     2    34 1   
     6     3     4 ar  
     7     3    30 1   
     8     4     5 ar  
     9     4    35 1   
    10     5     6 ar  
    11     5     7 1   
    12     6    10 1   
    13     7     8 1   
    14     7    36 1   
    15     7    37 1   
    16     8     9 1   
    17     8    38 1   
    18     8    39 1   
    19     9    10 1   
    20     9    11 1   
    21     9    40 1   
    22    10    14 1   
    23    10    41 1   
    24    11    12 1   
    25    11    15 1   
    26    11    42 1   
    27    12    13 1   
    28    12    17 1   
    29    12    18 1   
    30    13    14 1   
    31    13    43 1   
    32    13    44 1   
    33    14    19 1   
    34    14    45 1   
    35    15    16 1   
    36    15    46 1   
    37    15    47 1   
    38    16    17 1   
    39    16    48 1   
    40    16    49 1   
    41    17    31 1   
    42    17    50 1   
    43    18    51 1   
    44    18    52 1   
    45    18    53 1   
    46    19    20 ar  
    47    19    24 ar  
    48    20    21 ar  
    49    20    54 1   
    50    21    22 ar  
    51    21    55 1   
    52    22    23 ar  
    53    22    32 1   
    54    23    24 ar  
    55    23    56 1   
    56    24    57 1   
    57    25    26 1   
    58    25    32 1   
    59    25    58 1   
    60    25    59 1   
    61    26    29 1   
    62    26    60 1   
    63    26    61 1   
    64    27    29 1   
    65    27    62 1   
    66    27    63 1   
    67    27    64 1   
    68    28    29 1   
    69    28    65 1   
    70    28    66 1   
    71    28    67 1   
    72    30    68 1   
    73    31    69 1   
@<TRIPOS>SUBSTRUCTURE
     1 QYM         1 TEMP              0 ****  ****    0 ROOT
