@<TRIPOS>MOLECULE
QYN
   50    54     1     0     0
SMALL
No Charge or Current Charge


@<TRIPOS>ATOM
      1 N1         -20.2770     5.1590    26.5510 ns         1 QYN      -0.169000
      2 N3         -24.9400    10.3140    27.5000 na         1 QYN      -0.245500
      3 C4         -22.9070     6.9070    30.4230 c6         1 QYN       0.250100
      4 C5         -22.7530     6.4220    28.0320 c6         1 QYN       0.211800
      5 C6         -22.0500     5.0670    28.2710 c6         1 QYN      -0.093400
      6 C7         -20.5550     5.1820    27.9100 c          1 QYN       0.603100
      7 C8         -19.0340     5.3250    25.8830 ca         1 QYN      -0.074000
      8 C10        -16.6390     5.4240    24.5120 ca         1 QYN       0.357900
      9 C13        -16.4690     8.6760    26.3250 ca         1 QYN      -0.104000
     10 C15        -18.5650     7.5610    26.8740 ca         1 QYN      -0.079000
     11 C17        -22.2610     4.5350    29.6920 ca         1 QYN      -0.042300
     12 C20        -26.2990    10.1760    27.2910 cc         1 QYN      -0.184000
     13 C21        -26.6520     9.0130    27.9260 cd         1 QYN       0.220900
     14 O2         -22.5380     9.7310    30.0140 o          1 QYN      -0.532000
     15 O1         -21.8940     9.3560    27.6000 o          1 QYN      -0.532000
     16 C19        -24.5160     9.2400    28.2630 cc         1 QYN       0.160400
     17 N4         -25.5500     8.4310    28.5200 nd         1 QYN      -0.589000
     18 N          -22.3940     7.3730    29.1070 n3         1 QYN      -0.736500
     19 C3         -22.6510     5.4210    30.7200 ca         1 QYN      -0.062300
     20 C2         -22.8300     4.9310    32.0290 ca         1 QYN      -0.098000
     21 C1         -22.6190     3.5700    32.3120 ca         1 QYN      -0.091000
     22 C18        -22.0520     3.1720    29.9790 ca         1 QYN      -0.089000
     23 C          -22.2300     2.6930    31.2870 ca         1 QYN       0.130000
     24 Cl         -21.9660     0.9910    31.6410 cl         1 QYN      -0.203000
     25 O          -19.6710     5.2390    28.7580 o          1 QYN      -0.547100
     26 C16        -18.2060     6.4610    26.0600 ca         1 QYN      -0.005000
     27 C14        -17.6970     8.6590    27.0070 ca         1 QYN      -0.087000
     28 C12        -16.1110     7.5990    25.4990 ca         1 QYN      -0.093000
     29 C11        -16.9790     6.4980    25.3600 ca         1 QYN      -0.091000
     30 N2         -17.4390     4.3510    24.3190 nb         1 QYN      -0.657000
     31 C9         -18.6110     4.3160    24.9920 ca         1 QYN       0.302900
     32 H1         -21.0750     5.0160    25.9440 hn         1 QYN       0.153000
     33 H3         -22.4520     7.4930    31.2340 h1         1 QYN       0.064200
     34 H4         -23.9930     7.0730    30.4880 h1         1 QYN       0.064200
     35 H5         -22.4640     6.8070    27.0420 h1         1 QYN       0.072700
     36 H6         -23.8430     6.2630    28.0050 h1         1 QYN       0.072700
     37 H7         -22.5030     4.4000    27.5250 hc         1 QYN       0.066700
     38 H8         -15.7000     5.4280    23.9590 h4         1 QYN       0.020100
     39 H9         -15.8010     9.5280    26.4290 ha         1 QYN       0.115000
     40 H10        -19.5140     7.5870    27.4010 ha         1 QYN       0.138000
     41 H11        -26.8950    10.8820    26.7260 h4         1 QYN       0.165000
     42 H12        -27.6350     8.5610    27.9860 h4         1 QYN       0.048100
     43 H14        -23.1360     5.6040    32.8270 ha         1 QYN       0.119000
     44 H15        -22.7570     3.1950    33.3230 ha         1 QYN       0.134000
     45 H16        -21.7490     2.4860    29.1930 ha         1 QYN       0.130000
     46 H17        -17.9800     9.5000    27.6360 ha         1 QYN       0.126000
     47 H18        -15.1640     7.6240    24.9630 ha         1 QYN       0.115000
     48 H19        -19.2300     3.4350    24.8230 h4         1 QYN       0.017100
     49 S          -22.7420     9.0100    28.7490 sy         1 QYN       1.171200
     50 H2         -24.3470    11.0640    27.1560 hn         1 QYN       0.376000
@<TRIPOS>BOND
     1     1     6 1   
     2     1     7 1   
     3     1    32 1   
     4     2    12 1   
     5     2    16 1   
     6     2    50 1   
     7     3    18 1   
     8     3    19 1   
     9     3    33 1   
    10     3    34 1   
    11     4     5 1   
    12     4    18 1   
    13     4    35 1   
    14     4    36 1   
    15     5     6 1   
    16     5    11 1   
    17     5    37 1   
    18     6    25 2   
    19     7    26 ar  
    20     7    31 ar  
    21     8    29 ar  
    22     8    30 ar  
    23     8    38 1   
    24     9    27 ar  
    25     9    28 ar  
    26     9    39 1   
    27    10    26 ar  
    28    10    27 ar  
    29    10    40 1   
    30    11    19 ar  
    31    11    22 ar  
    32    12    13 2   
    33    12    41 1   
    34    13    17 1   
    35    13    42 1   
    36    14    49 2   
    37    15    49 2   
    38    16    17 2   
    39    16    49 1   
    40    18    49 1   
    41    19    20 ar  
    42    20    21 ar  
    43    20    43 1   
    44    21    23 ar  
    45    21    44 1   
    46    22    23 ar  
    47    22    45 1   
    48    23    24 1   
    49    26    29 ar  
    50    27    46 1   
    51    28    29 ar  
    52    28    47 1   
    53    30    31 ar  
    54    31    48 1   
@<TRIPOS>SUBSTRUCTURE
     1 QYN         1 TEMP              0 ****  ****    0 ROOT
