@<TRIPOS>MOLECULE
QYN
   50    54     1     0     0
SMALL
abcg2


@<TRIPOS>ATOM
      1 N1         -20.1940     4.9750    26.6080 ns         1 QYN      -0.169000
      2 N3         -25.0050     9.9770    29.0580 na         1 QYN      -0.245500
      3 C4         -23.1360     6.9380    30.1830 c6         1 QYN       0.250100
      4 C5         -22.8190     6.3410    27.8240 c6         1 QYN       0.211800
      5 C6         -22.0640     5.0470    28.1490 c6         1 QYN      -0.093400
      6 C7         -20.5670     5.2410    27.8870 c          1 QYN       0.603100
      7 C8         -18.8670     5.1100    26.1240 ca         1 QYN      -0.074000
      8 C10        -16.3260     5.1810    25.1240 ca         1 QYN       0.357900
      9 C13        -16.8650     8.8100    25.7300 ca         1 QYN      -0.104000
     10 C15        -18.8710     7.6040    26.3630 ca         1 QYN      -0.079000
     11 C17        -22.3220     4.6100    29.5700 ca         1 QYN      -0.042300
     12 C20        -26.2380    10.1020    28.4830 cc         1 QYN      -0.184000
     13 C21        -26.1250     9.5390    27.2340 cd         1 QYN       0.220900
     14 O2         -22.1640     9.6320    29.6850 o          1 QYN      -0.532000
     15 O1         -21.7870     9.0360    27.2850 o          1 QYN      -0.532000
     16 C19        -24.2010     9.3640    28.1510 cc         1 QYN       0.160400
     17 N4         -24.8480     9.0760    27.0390 nd         1 QYN      -0.589000
     18 N          -22.5570     7.3170    28.8880 n3         1 QYN      -0.736500
     19 C3         -22.8010     5.5080    30.5240 ca         1 QYN      -0.062300
     20 C2         -23.0170     5.0680    31.8300 ca         1 QYN      -0.098000
     21 C1         -22.7630     3.7560    32.1980 ca         1 QYN      -0.091000
     22 C18        -22.0640     3.2880    29.9330 ca         1 QYN      -0.089000
     23 C          -22.2860     2.8760    31.2340 ca         1 QYN       0.130000
     24 CL         -21.9620     1.2120    31.6760 cl         1 QYN      -0.203000
     25 O          -19.7880     5.6400    28.7410 o          1 QYN      -0.547100
     26 C16        -18.2480     6.3830    26.0180 ca         1 QYN      -0.005000
     27 C14        -18.1900     8.7860    26.2210 ca         1 QYN      -0.087000
     28 C12        -16.2420     7.6410    25.3760 ca         1 QYN      -0.093000
     29 C11        -16.9210     6.4070    25.5070 ca         1 QYN      -0.091000
     30 N2         -16.9270     4.0160    25.2100 nb         1 QYN      -0.657000
     31 C9         -18.1860     3.9910    25.7160 ca         1 QYN       0.302900
     32 H1         -20.8640     4.5240    26.0030 hn         1 QYN       0.153000
     33 H3         -22.7410     7.6030    30.9470 h1         1 QYN       0.064200
     34 H4         -24.2270     7.0590    30.1600 h1         1 QYN       0.064200
     35 H5         -22.4910     6.7490    26.8730 h1         1 QYN       0.072700
     36 H6         -23.8910     6.1320    27.7630 h1         1 QYN       0.072700
     37 H7         -22.4360     4.2790    27.4690 hc         1 QYN       0.066700
     38 H8         -15.3140     5.1910    24.7290 h4         1 QYN       0.020100
     39 H9         -16.3490     9.7560    25.6290 ha         1 QYN       0.115000
     40 H10        -19.8840     7.6090    26.7340 ha         1 QYN       0.138000
     41 H11        -27.0600    10.5730    28.9940 h4         1 QYN       0.165000
     42 H12        -26.8830     9.4470    26.4740 h4         1 QYN       0.048100
     43 H14        -23.3860     5.7650    32.5730 ha         1 QYN       0.119000
     44 H15        -22.9290     3.4230    33.2130 ha         1 QYN       0.134000
     45 H16        -21.6930     2.5880    29.1950 ha         1 QYN       0.130000
     46 H17        -18.6750     9.7170    26.4860 ha         1 QYN       0.126000
     47 H18        -15.2300     7.6440    24.9890 ha         1 QYN       0.115000
     48 H19        -18.6600     3.0180    25.7900 h4         1 QYN       0.017100
     49 S          -22.5400     8.9020    28.5020 sy         1 QYN       1.171200
     50 H2         -24.7310    10.2980    29.9750 hn         1 QYN       0.376000
@<TRIPOS>BOND
     1     1     6 1   
     2     1     7 1   
     3     1    32 1   
     4     2    12 1   
     5     2    16 1   
     6     2    50 1   
     7     3    18 1   
     8     3    19 1   
     9     3    33 1   
    10     3    34 1   
    11     4     5 1   
    12     4    18 1   
    13     4    35 1   
    14     4    36 1   
    15     5     6 1   
    16     5    11 1   
    17     5    37 1   
    18     6    25 2   
    19     7    26 ar  
    20     7    31 ar  
    21     8    29 ar  
    22     8    30 ar  
    23     8    38 1   
    24     9    27 ar  
    25     9    28 ar  
    26     9    39 1   
    27    10    26 ar  
    28    10    27 ar  
    29    10    40 1   
    30    11    19 ar  
    31    11    22 ar  
    32    12    13 2   
    33    12    41 1   
    34    13    17 1   
    35    13    42 1   
    36    14    49 2   
    37    15    49 2   
    38    16    17 2   
    39    16    49 1   
    40    18    49 1   
    41    19    20 ar  
    42    20    21 ar  
    43    20    43 1   
    44    21    23 ar  
    45    21    44 1   
    46    22    23 ar  
    47    22    45 1   
    48    23    24 1   
    49    26    29 ar  
    50    27    46 1   
    51    28    29 ar  
    52    28    47 1   
    53    30    31 ar  
    54    31    48 1   
@<TRIPOS>SUBSTRUCTURE
     1 QYN         1 TEMP              0 ****  ****    0 ROOT
