@<TRIPOS>MOLECULE
QYO
   36    39     1     0     0
SMALL
abcg2


@<TRIPOS>ATOM
      1 C17        -46.2920   -28.9560     6.4030 ca         1 QYO       0.204500
      2 C14        -48.6030   -29.4770     3.5890 ca         1 QYO      -0.049000
      3 C13        -49.9840   -29.3420     3.6570 ca         1 QYO      -0.168000
      4 C12        -50.5740   -28.9820     4.8640 ca         1 QYO       0.184000
      5 C11        -49.8680   -28.7420     6.0270 ca         1 QYO      -0.170000
      6 C10        -48.4880   -28.8840     5.9410 ca         1 QYO       0.005800
      7 C19        -44.0800   -29.1660     6.3240 ca         1 QYO       0.184900
      8 C02        -44.5810   -32.4160     1.2050 c5         1 QYO       0.157300
      9 C03        -44.2110   -31.4270     0.1050 c5         1 QYO      -0.078400
     10 C04        -44.1770   -30.0500     0.8050 c5         1 QYO      -0.085400
     11 C05        -44.0210   -30.3370     2.3230 c5         1 QYO       0.235500
     12 C07        -45.2210   -29.5710     4.3610 ca         1 QYO       0.429900
     13 C08        -46.4230   -29.2940     5.0450 cp         1 QYO      -0.255000
     14 C09        -47.8320   -29.2510     4.7310 cp         1 QYO      -0.062000
     15 C21        -43.8370   -31.8680     2.4200 c5         1 QYO      -0.139400
     16 F15        -51.9280   -28.8570     4.9010 f          1 QYO      -0.184000
     17 N06        -45.2010   -29.8750     3.0480 nu         1 QYO      -0.907100
     18 N16        -47.5350   -28.7150     6.9270 na         1 QYO      -0.332300
     19 N18        -45.1400   -28.8810     7.0790 nb         1 QYO      -0.242000
     20 N20        -44.0510   -29.5030     5.0360 nb         1 QYO      -0.291000
     21 O01        -46.0090   -32.3430     1.3840 oh         1 QYO      -0.676000
     22 H141       -48.1510   -29.7560     2.6470 ha         1 QYO       0.119000
     23 H131       -50.6070   -29.5110     2.7900 ha         1 QYO       0.134000
     24 H111       -50.3700   -28.4620     6.9430 ha         1 QYO       0.138000
     25 H191       -43.1150   -29.1210     6.8210 h5         1 QYO       0.047100
     26 H021       -44.2950   -33.4440     0.9620 h1         1 QYO       0.048700
     27 H032       -43.2240   -31.6870    -0.2800 hc         1 QYO       0.057700
     28 H031       -44.9160   -31.4660    -0.7250 hc         1 QYO       0.057700
     29 H041       -43.3570   -29.4340     0.4390 hc         1 QYO       0.056200
     30 H042       -45.0990   -29.4960     0.6290 hc         1 QYO       0.056200
     31 H051       -43.1690   -29.8160     2.7470 h1         1 QYO       0.091700
     32 H211       -42.7770   -32.1180     2.3270 hc         1 QYO       0.062200
     33 H212       -44.1990   -32.2730     3.3660 hc         1 QYO       0.062200
     34 H061       -46.0840   -30.1050     2.6200 hn         1 QYO       0.497000
     35 H161       -47.7160   -28.4500     7.8820 hn         1 QYO       0.369000
     36 H011       -46.2420   -32.8550     2.1680 ho         1 QYO       0.442000
@<TRIPOS>BOND
     1     1    13 ar  
     2     1    18 1   
     3     1    19 ar  
     4     2     3 ar  
     5     2    14 ar  
     6     2    22 1   
     7     3     4 ar  
     8     3    23 1   
     9     4     5 ar  
    10     4    16 1   
    11     5     6 ar  
    12     5    24 1   
    13     6    14 ar  
    14     6    18 1   
    15     7    19 ar  
    16     7    20 ar  
    17     7    25 1   
    18     8     9 1   
    19     8    15 1   
    20     8    21 1   
    21     8    26 1   
    22     9    10 1   
    23     9    27 1   
    24     9    28 1   
    25    10    11 1   
    26    10    29 1   
    27    10    30 1   
    28    11    15 1   
    29    11    17 1   
    30    11    31 1   
    31    12    13 ar  
    32    12    17 1   
    33    12    20 ar  
    34    13    14 1   
    35    15    32 1   
    36    15    33 1   
    37    17    34 1   
    38    18    35 1   
    39    21    36 1   
@<TRIPOS>SUBSTRUCTURE
     1 QYO         1 TEMP              0 ****  ****    0 ROOT
