@<TRIPOS>MOLECULE
QYO
   36    39     1     0     0
SMALL
No Charge or Current Charge


@<TRIPOS>ATOM
      1 C17        -46.0870   -29.1550     6.5000 ca         1 QYO       0.204500
      2 C14        -48.3990   -29.1300     3.5790 ca         1 QYO      -0.049000
      3 C13        -49.8090   -29.0640     3.6370 ca         1 QYO      -0.168000
      4 C12        -50.4780   -28.9890     4.8820 ca         1 QYO       0.184000
      5 C11        -49.7560   -28.9820     6.0900 ca         1 QYO      -0.170000
      6 C10        -48.3640   -29.0470     6.0000 ca         1 QYO       0.005800
      7 C19        -43.8300   -29.2850     6.2610 ca         1 QYO       0.184900
      8 C02        -44.3150   -32.4390     1.3680 c5         1 QYO       0.157300
      9 C03        -44.2310   -31.4560     0.1520 c5         1 QYO      -0.078400
     10 C04        -44.4480   -30.0300     0.7600 c5         1 QYO      -0.085400
     11 C05        -44.2870   -30.2760     2.2830 c5         1 QYO       0.235500
     12 C07        -45.0800   -29.2600     4.3220 ca         1 QYO       0.429900
     13 C08        -46.2450   -29.1760     5.1100 cp         1 QYO      -0.255000
     14 C09        -47.6750   -29.1140     4.7930 cp         1 QYO      -0.062000
     15 C21        -45.0620   -31.6050     2.4360 c5         1 QYO      -0.139400
     16 F15        -51.8270   -28.9300     4.9110 f          1 QYO      -0.184000
     17 N06        -45.1370   -29.2420     2.9300 nu         1 QYO      -0.907100
     18 N16        -47.3900   -29.0700     7.0040 na         1 QYO      -0.332300
     19 N18        -44.8890   -29.2100     7.1000 nb         1 QYO      -0.242000
     20 N20        -43.8640   -29.3080     4.9070 nb         1 QYO      -0.291000
     21 O01        -45.0170   -33.6350     1.0440 oh         1 QYO      -0.676000
     22 H141       -47.9000   -29.1950     2.6170 ha         1 QYO       0.119000
     23 H131       -50.3890   -29.0730     2.7180 ha         1 QYO       0.134000
     24 H111       -50.2640   -28.9310     7.0490 ha         1 QYO       0.138000
     25 H191       -42.8460   -29.3280     6.7240 h5         1 QYO       0.047100
     26 H021       -43.3020   -32.6790     1.7230 h1         1 QYO       0.048700
     27 H032       -43.2600   -31.5410    -0.3490 hc         1 QYO       0.057700
     28 H031       -44.9950   -31.6720    -0.6040 hc         1 QYO       0.057700
     29 H041       -43.7240   -29.3000     0.3820 hc         1 QYO       0.056200
     30 H042       -45.4450   -29.6600     0.4940 hc         1 QYO       0.056200
     31 H051       -43.2330   -30.3220     2.6040 h1         1 QYO       0.091700
     32 H211       -44.9680   -32.0330     3.4410 hc         1 QYO       0.062200
     33 H212       -46.1300   -31.5090     2.2070 hc         1 QYO       0.062200
     34 H061       -46.0730   -29.0790     2.5750 hn         1 QYO       0.497000
     35 H161       -47.5970   -29.0330     7.9950 hn         1 QYO       0.369000
     36 H011       -45.0590   -34.1720     1.8670 ho         1 QYO       0.442000
@<TRIPOS>BOND
     1     1    13 ar  
     2     1    18 1   
     3     1    19 ar  
     4     2     3 ar  
     5     2    14 ar  
     6     2    22 1   
     7     3     4 ar  
     8     3    23 1   
     9     4     5 ar  
    10     4    16 1   
    11     5     6 ar  
    12     5    24 1   
    13     6    14 ar  
    14     6    18 1   
    15     7    19 ar  
    16     7    20 ar  
    17     7    25 1   
    18     8     9 1   
    19     8    15 1   
    20     8    21 1   
    21     8    26 1   
    22     9    10 1   
    23     9    27 1   
    24     9    28 1   
    25    10    11 1   
    26    10    29 1   
    27    10    30 1   
    28    11    15 1   
    29    11    17 1   
    30    11    31 1   
    31    12    13 ar  
    32    12    17 1   
    33    12    20 ar  
    34    13    14 1   
    35    15    32 1   
    36    15    33 1   
    37    17    34 1   
    38    18    35 1   
    39    21    36 1   
@<TRIPOS>SUBSTRUCTURE
     1 QYO         1 TEMP              0 ****  ****    0 ROOT
