@<TRIPOS>MOLECULE
QYP
   40    41     1     0     0
SMALL
No Charge or Current Charge


@<TRIPOS>ATOM
      1 C13          2.3990     7.7640    17.9180 ca         1 QYP      -0.175000
      2 C16          6.2530     6.9820    20.2700 c3         1 QYP      -0.078400
      3 C17          1.9700     6.6460    18.6490 ca         1 QYP      -0.083000
      4 C19          6.6760     7.5270    21.6530 c3         1 QYP      -0.073400
      5 C20          5.4910     7.8190    22.6050 c3         1 QYP      -0.072400
      6 C21          4.6550     6.5780    22.9860 c3         1 QYP      -0.090100
      7 C1           6.0240     6.7710    16.9550 c6         1 QYP      -0.148700
      8 C2           4.5890     6.7170    17.5650 ca         1 QYP      -0.041300
      9 C3           6.4570     8.2450    16.6170 c6         1 QYP      -0.119400
     10 C4           7.1150     6.1310    17.9250 c3         1 QYP      -0.048400
     11 C5           5.9940     5.9770    15.5930 c          1 QYP       0.720000
     12 C6           3.6950     7.7990    17.3770 ca         1 QYP      -0.003000
     13 C7           4.1230     5.5760    18.2600 ca         1 QYP      -0.043000
     14 C8           5.3350     9.1400    16.0720 c          1 QYP       0.604000
     15 C9           7.4390     6.8070    19.2940 c3         1 QYP      -0.076400
     16 O10          6.7100     4.9920    15.4740 o          1 QYP      -0.703000
     17 O11          5.0020     6.1180    14.8920 o          1 QYP      -0.703000
     18 N12          4.0880     8.9050    16.6010 ns         1 QYP      -0.146000
     19 C14          2.8320     5.5520    18.8120 ca         1 QYP      -0.036900
     20 O15          5.5410    10.0100    15.2330 o          1 QYP      -0.578000
     21 Br18         2.2460     4.0170    19.7880 br         1 QYP      -0.162100
     22 H31          1.7210     8.6020    17.7690 ha         1 QYP       0.103000
     23 H32          5.5220     7.6740    19.8370 hc         1 QYP       0.044200
     24 H33          5.7600     6.0130    20.4040 hc         1 QYP       0.044200
     25 H34          0.9680     6.6220    19.0740 ha         1 QYP       0.111000
     26 H36          7.3570     6.8130    22.1330 hc         1 QYP       0.029200
     27 H35          7.2420     8.4560    21.5110 hc         1 QYP       0.029200
     28 H38          5.8860     8.2690    23.5240 hc         1 QYP       0.029200
     29 H37          4.8330     8.5680    22.1470 hc         1 QYP       0.029200
     30 H39          3.8980     6.8460    23.7320 hc         1 QYP       0.031033
     31 H41          4.1350     6.1680    22.1120 hc         1 QYP       0.031033
     32 H40          5.2940     5.7950    23.4120 hc         1 QYP       0.031033
     33 H23          6.7050     8.7340    17.5640 hc         1 QYP       0.058700
     34 H22          7.3480     8.3060    15.9780 hc         1 QYP       0.058700
     35 H25          6.8820     5.0790    18.1240 hc         1 QYP       0.051700
     36 H24          8.0710     6.0980    17.3870 hc         1 QYP       0.051700
     37 H26          4.7560     4.7040    18.3840 ha         1 QYP       0.136000
     38 H28          8.1980     6.1900    19.7910 hc         1 QYP       0.022700
     39 H27          7.9180     7.7780    19.1280 hc         1 QYP       0.022700
     40 H30          3.3490     9.5300    16.3080 hn         1 QYP       0.141000
@<TRIPOS>BOND
     1     1     3 ar  
     2     1    12 ar  
     3     1    22 1   
     4     2     4 1   
     5     2    15 1   
     6     2    23 1   
     7     2    24 1   
     8     3    19 ar  
     9     3    25 1   
    10     4     5 1   
    11     4    26 1   
    12     4    27 1   
    13     5     6 1   
    14     5    28 1   
    15     5    29 1   
    16     6    30 1   
    17     6    31 1   
    18     6    32 1   
    19     7     8 1   
    20     7     9 1   
    21     7    10 1   
    22     7    11 1   
    23     8    12 ar  
    24     8    13 ar  
    25     9    14 1   
    26     9    33 1   
    27     9    34 1   
    28    10    15 1   
    29    10    35 1   
    30    10    36 1   
    31    11    16 1   
    32    11    17 1   
    33    12    18 1   
    34    13    19 ar  
    35    13    37 1   
    36    14    18 1   
    37    14    20 2   
    38    15    38 1   
    39    15    39 1   
    40    18    40 1   
    41    19    21 1   
@<TRIPOS>SUBSTRUCTURE
     1 QYP         1 TEMP              0 ****  ****    0 ROOT
