@<TRIPOS>MOLECULE
QYP
   40    41     1     0     0
SMALL
abcg2


@<TRIPOS>ATOM
      1 C13          2.2510     7.5920    17.5740 ca         1 QYP      -0.175000
      2 C16          6.3000     6.9680    20.3110 c3         1 QYP      -0.078400
      3 C17          1.8120     6.5390    18.3640 ca         1 QYP      -0.083000
      4 C19          6.8170     7.5290    21.6330 c3         1 QYP      -0.073400
      5 C20          5.7140     7.8300    22.6520 c3         1 QYP      -0.072400
      6 C21          4.9020     6.6050    23.0740 c3         1 QYP      -0.090100
      7 C1           5.9430     6.8120    17.0690 c6         1 QYP      -0.148700
      8 C2           4.5160     6.6990    17.5770 ca         1 QYP      -0.041300
      9 C3           6.2940     8.2970    16.9180 c6         1 QYP      -0.119400
     10 C4           7.0090     6.1190    17.9520 c3         1 QYP      -0.048400
     11 C5           5.9800     6.0840    15.6630 c          1 QYP       0.720000
     12 C6           3.5860     7.6730    17.1800 ca         1 QYP      -0.003000
     13 C7           4.0580     5.6380    18.3500 ca         1 QYP      -0.043000
     14 C8           5.2850     9.0990    16.1470 c          1 QYP       0.604000
     15 C9           7.4060     6.7910    19.2720 c3         1 QYP      -0.076400
     16 O10          5.7420     4.8550    15.6730 o          1 QYP      -0.703000
     17 O11          6.2520     6.7870    14.6600 o          1 QYP      -0.703000
     18 N12          3.9910     8.7330    16.3580 ns         1 QYP      -0.146000
     19 C14          2.7300     5.5720    18.7410 ca         1 QYP      -0.036900
     20 O15          5.5680    10.0600    15.4370 o          1 QYP      -0.578000
     21 BR18         2.1590     4.1150    19.8540 br         1 QYP      -0.162100
     22 H31          1.5550     8.3610    17.2620 ha         1 QYP       0.103000
     23 H32          5.5220     7.6330    19.9230 hc         1 QYP       0.044200
     24 H33          5.8140     6.0060    20.4850 hc         1 QYP       0.044200
     25 H34          0.7780     6.4820    18.6760 ha         1 QYP       0.111000
     26 H36          7.5310     6.8210    22.0710 hc         1 QYP       0.029200
     27 H35          7.3770     8.4490    21.4360 hc         1 QYP       0.029200
     28 H38          6.1680     8.2810    23.5400 hc         1 QYP       0.029200
     29 H37          5.0400     8.5850    22.2350 hc         1 QYP       0.029200
     30 H39          4.1820     6.8620    23.8540 hc         1 QYP       0.031033
     31 H41          4.3440     6.1830    22.2360 hc         1 QYP       0.031033
     32 H40          5.5540     5.8200    23.4680 hc         1 QYP       0.031033
     33 H23          6.3430     8.7630    17.9080 hc         1 QYP       0.058700
     34 H22          7.2640     8.4230    16.4450 hc         1 QYP       0.058700
     35 H25          6.6940     5.0930    18.1400 hc         1 QYP       0.051700
     36 H24          7.9140     6.0400    17.3410 hc         1 QYP       0.051700
     37 H26          4.7410     4.8610    18.6540 ha         1 QYP       0.136000
     38 H28          8.2000     6.1780    19.7130 hc         1 QYP       0.022700
     39 H27          7.8650     7.7640    19.0710 hc         1 QYP       0.022700
     40 H30          3.2780     9.3160    15.9390 hn         1 QYP       0.141000
@<TRIPOS>BOND
     1     1     3 ar  
     2     1    12 ar  
     3     1    22 1   
     4     2     4 1   
     5     2    15 1   
     6     2    23 1   
     7     2    24 1   
     8     3    19 ar  
     9     3    25 1   
    10     4     5 1   
    11     4    26 1   
    12     4    27 1   
    13     5     6 1   
    14     5    28 1   
    15     5    29 1   
    16     6    30 1   
    17     6    31 1   
    18     6    32 1   
    19     7     8 1   
    20     7     9 1   
    21     7    10 1   
    22     7    11 1   
    23     8    12 ar  
    24     8    13 ar  
    25     9    14 1   
    26     9    33 1   
    27     9    34 1   
    28    10    15 1   
    29    10    35 1   
    30    10    36 1   
    31    11    16 1   
    32    11    17 1   
    33    12    18 1   
    34    13    19 ar  
    35    13    37 1   
    36    14    18 1   
    37    14    20 2   
    38    15    38 1   
    39    15    39 1   
    40    18    40 1   
    41    19    21 1   
@<TRIPOS>SUBSTRUCTURE
     1 QYP         1 TEMP              0 ****  ****    0 ROOT
