@<TRIPOS>MOLECULE
QYQ
   65    68     1     0     0
SMALL
No Charge or Current Charge


@<TRIPOS>ATOM
      1 C1           5.2030    -4.6300    23.6580 c3         1 QYQ       0.096000
      2 C3          12.3630    -1.3070    25.4590 cc         1 QYQ      -0.112300
      3 C11         12.7860     1.0830    28.0660 cc         1 QYQ      -0.350600
      4 C12         13.2610    -1.7840    24.3260 c3         1 QYQ       0.215600
      5 C14          9.1950    -3.1280    24.6310 ca         1 QYQ       0.329000
      6 C15          9.0060    -4.4210    24.1290 ca         1 QYQ      -0.173500
      7 C16          7.7150    -4.8880    23.8290 ca         1 QYQ      -0.049500
      8 C17          6.5890    -4.0610    24.0190 ca         1 QYQ      -0.149300
      9 C18          6.7890    -2.7470    24.5010 ca         1 QYQ      -0.049500
     10 C19          8.0830    -2.2870    24.8000 ca         1 QYQ      -0.173500
     11 C23         12.8790    -1.1540    22.9740 c3         1 QYQ      -0.087100
     12 C24          3.9760    -3.9900    24.3870 c3         1 QYQ       0.289000
     13 N2          10.8180    -0.2690    27.6650 nc         1 QYQ      -0.615000
     14 C4          11.0490    -1.7250    25.7190 cd         1 QYQ       0.212000
     15 C5          10.3030    -1.1890    26.8600 cd         1 QYQ       0.360900
     16 N6          10.4930    -2.6980    24.9020 nu         1 QYQ      -0.981000
     17 C7          12.0360     0.1650    27.4270 cd         1 QYQ       0.361500
     18 N8          12.8130    -0.3240    26.3580 na         1 QYQ       0.135900
     19 N9          14.0620     0.3020    26.3310 nd         1 QYQ      -0.576100
     20 C10         13.9920     1.1230    27.3630 cc         1 QYQ       0.427600
     21 Cl1         15.2790     2.1850    27.8380 cl         1 QYQ      -0.070300
     22 N20          5.0210    -4.7250    22.1750 n          1 QYQ      -0.411800
     23 O21         13.1570    -3.2170    24.1710 os         1 QYQ      -0.463000
     24 F25          2.8710    -4.7500    24.2090 f          1 QYQ      -0.112000
     25 F26          4.1920    -3.8980    25.7190 f          1 QYQ      -0.112000
     26 F27          3.6900    -2.7520    23.9220 f          1 QYQ      -0.112000
     27 O30          4.3540    -6.9240    22.2630 o          1 QYQ      -0.581100
     28 C31          4.4210    -6.0430    20.0300 c6         1 QYQ      -0.148700
     29 C32          4.9220    -7.3880    19.4300 c6         1 QYQ      -0.049900
     30 C33          4.8860    -7.3820    17.8780 c6         1 QYQ      -0.301400
     31 S34          3.2270    -7.0900    17.2010 s6         1 QYQ       1.078000
     32 C35          2.8180    -5.5510    18.0730 c6         1 QYQ      -0.301400
     33 C36          2.9730    -5.6590    19.6140 c6         1 QYQ      -0.049900
     34 O37          3.3430    -6.8060    15.7650 o          1 QYQ      -0.512500
     35 O38          2.3280    -8.1540    17.6690 o          1 QYQ      -0.512500
     36 H1           5.2270    -5.6530    24.0570 h1         1 QYQ       0.122700
     37 H2          12.5260     1.6710    28.9360 ha         1 QYQ       0.242000
     38 H3          14.3040    -1.5100    24.5370 h1         1 QYQ       0.084700
     39 H4           9.8600    -5.0740    23.9760 ha         1 QYQ       0.124000
     40 H5           7.5900    -5.8980    23.4430 ha         1 QYQ       0.123500
     41 H6           5.9550    -2.0640    24.6370 ha         1 QYQ       0.123500
     42 H7           8.2130    -1.2640    25.1360 ha         1 QYQ       0.124000
     43 H8          13.6320    -5.0640    25.0300 h1         1 QYQ       0.040033
     44 H9          14.8020    -3.7670    25.3540 h1         1 QYQ       0.040033
     45 H10         13.2320    -3.7860    26.1950 h1         1 QYQ       0.040033
     46 H11         12.9620    -0.0620    23.0280 hc         1 QYQ       0.052700
     47 H12         13.5480    -1.5090    22.1830 hc         1 QYQ       0.052700
     48 H13         11.8490    -1.4070    22.6980 hc         1 QYQ       0.052700
     49 H17          9.3060    -1.5120    27.1260 h4         1 QYQ       0.046100
     50 H18         11.2200    -3.2110    24.3890 hn         1 QYQ       0.518000
     51 H19          5.0450    -5.2590    19.5880 hc         1 QYQ       0.061700
     52 H20          4.3150    -8.2200    19.8160 hc         1 QYQ       0.075950
     53 H21          5.9510    -7.5800    19.7680 hc         1 QYQ       0.075950
     54 H22          5.2130    -8.3460    17.4680 h1         1 QYQ       0.103950
     55 H23          5.5210    -6.5860    17.4700 h1         1 QYQ       0.103950
     56 H24          3.4870    -4.7850    17.6600 h1         1 QYQ       0.103950
     57 H25          1.7840    -5.3120    17.7920 h1         1 QYQ       0.103950
     58 H26          2.6920    -4.7000    20.0730 hc         1 QYQ       0.075950
     59 H27          2.2650    -6.4010    20.0120 hc         1 QYQ       0.075950
     60 C28          5.3220    -3.5110    21.3740 c3         1 QYQ       0.090300
     61 C29          4.6140    -5.9470    21.5720 c          1 QYQ       0.612100
     62 C22         13.7330    -3.9920    25.2400 c3         1 QYQ       0.136900
     63 H14          5.4830    -2.6420    22.0240 h1         1 QYQ       0.047033
     64 H15          6.2320    -3.6740    20.7820 h1         1 QYQ       0.047033
     65 H16          4.4850    -3.2820    20.7030 h1         1 QYQ       0.047033
@<TRIPOS>BOND
     1     1     8 1   
     2     1    12 1   
     3     1    22 1   
     4     1    36 1   
     5     2     4 1   
     6     2    14 2   
     7     2    18 1   
     8     3    17 2   
     9     3    20 1   
    10     3    37 1   
    11     4    11 1   
    12     4    23 1   
    13     4    38 1   
    14     5     6 ar  
    15     5    10 ar  
    16     5    16 1   
    17     6     7 ar  
    18     6    39 1   
    19     7     8 ar  
    20     7    40 1   
    21     8     9 ar  
    22     9    10 ar  
    23     9    41 1   
    24    10    42 1   
    25    11    46 1   
    26    11    47 1   
    27    11    48 1   
    28    12    24 1   
    29    12    25 1   
    30    12    26 1   
    31    13    15 2   
    32    13    17 1   
    33    14    15 1   
    34    14    16 1   
    35    15    49 1   
    36    16    50 1   
    37    17    18 1   
    38    18    19 1   
    39    19    20 2   
    40    20    21 1   
    41    22    60 1   
    42    22    61 1   
    43    23    62 1   
    44    27    61 2   
    45    28    29 1   
    46    28    33 1   
    47    28    51 1   
    48    28    61 1   
    49    29    30 1   
    50    29    52 1   
    51    29    53 1   
    52    30    31 1   
    53    30    54 1   
    54    30    55 1   
    55    31    32 1   
    56    31    34 2   
    57    31    35 2   
    58    32    33 1   
    59    32    56 1   
    60    32    57 1   
    61    33    58 1   
    62    33    59 1   
    63    43    62 1   
    64    44    62 1   
    65    45    62 1   
    66    60    63 1   
    67    60    64 1   
    68    60    65 1   
@<TRIPOS>SUBSTRUCTURE
     1 QYQ         1 TEMP              0 ****  ****    0 ROOT
