@<TRIPOS>MOLECULE
QYQ
   65    68     1     0     0
SMALL
bcc


@<TRIPOS>ATOM
      1 C1           5.2500    -4.4240    23.5320 c3         1 QYQ       0.096000
      2 C3          12.1130    -1.5020    25.4880 cc         1 QYQ      -0.061600
      3 C11         12.4260     1.0000    27.9490 cc         1 QYQ      -0.300600
      4 C12         12.9070    -1.7810    24.2300 c3         1 QYQ       0.192400
      5 C14          9.2860    -3.5640    24.8410 ca         1 QYQ       0.190600
      6 C15          8.9000    -4.8250    24.3730 ca         1 QYQ      -0.191500
      7 C16          7.6000    -5.0520    23.9710 ca         1 QYQ      -0.067500
      8 C17          6.6310    -4.0480    24.0200 ca         1 QYQ      -0.149300
      9 C18          7.0230    -2.7950    24.4740 ca         1 QYQ      -0.067500
     10 C19          8.3290    -2.5500    24.8740 ca         1 QYQ      -0.191500
     11 C23         12.0990    -1.4160    22.9940 c3         1 QYQ      -0.087100
     12 C24          4.1110    -3.5270    23.9990 c3         1 QYQ       0.652900
     13 N2          10.7490    -0.8470    27.8610 nc         1 QYQ      -0.615000
     14 C4          11.0430    -2.2430    25.9190 cd         1 QYQ       0.008300
     15 C5          10.4040    -1.8690    27.1370 cd         1 QYQ       0.426200
     16 N6          10.5960    -3.3720    25.2430 nu         1 QYQ      -0.649000
     17 C7          11.7910    -0.1210    27.4350 cd         1 QYQ       0.361500
     18 N8          12.4730    -0.4520    26.2790 na         1 QYQ       0.085200
     19 N9          13.4850     0.3780    26.0290 nd         1 QYQ      -0.576100
     20 C10         13.4430     1.2360    27.0340 cc         1 QYQ       0.427600
     21 CL1         14.5900     2.4980    27.1050 cl         1 QYQ      -0.070300
     22 N20          5.1980    -4.5700    22.0850 n          1 QYQ      -0.478800
     23 O21         13.2680    -3.1390    24.1610 os         1 QYQ      -0.416600
     24 F25          2.9280    -4.0370    23.6380 f          1 QYQ      -0.233300
     25 F26          4.1030    -3.4070    25.3310 f          1 QYQ      -0.233300
     26 F27          4.1550    -2.2880    23.4880 f          1 QYQ      -0.233300
     27 O30          4.2510    -6.6150    22.2850 o          1 QYQ      -0.581100
     28 C31          4.5720    -5.8300    20.0630 c6         1 QYQ      -0.148700
     29 C32          4.8980    -7.2580    19.6200 c6         1 QYQ      -0.049900
     30 C33          4.8780    -7.3990    18.1030 c6         1 QYQ      -0.190600
     31 S34          3.2610    -7.0190    17.4460 s6         1 QYQ       0.998000
     32 C35          2.9810    -5.3920    18.1320 c6         1 QYQ      -0.190600
     33 C36          3.1570    -5.4000    19.6440 c6         1 QYQ      -0.049900
     34 O37          3.3300    -6.9290    15.9870 o          1 QYQ      -0.583300
     35 O38          2.2900    -7.9450    18.0340 o          1 QYQ      -0.583300
     36 H1           5.0160    -5.4050    23.9510 h1         1 QYQ       0.122700
     37 H2          12.1820     1.5460    28.8430 ha         1 QYQ       0.192000
     38 H3          13.8080    -1.1570    24.2500 h1         1 QYQ       0.084700
     39 H4           9.6240    -5.6300    24.3370 ha         1 QYQ       0.142000
     40 H5           7.3290    -6.0420    23.6220 ha         1 QYQ       0.141500
     41 H6           6.3340    -1.9630    24.5130 ha         1 QYQ       0.141500
     42 H7           8.5940    -1.5500    25.1900 ha         1 QYQ       0.142000
     43 H8          14.5180    -4.5500    24.9020 h1         1 QYQ       0.040033
     44 H9          15.1800    -2.9040    24.9450 h1         1 QYQ       0.040033
     45 H10         13.9470    -3.4010    26.1220 h1         1 QYQ       0.040033
     46 H11         11.8000    -0.3690    23.0400 hc         1 QYQ       0.052700
     47 H12         12.7070    -1.5530    22.1000 hc         1 QYQ       0.052700
     48 H13         11.2000    -2.0240    22.9000 hc         1 QYQ       0.052700
     49 H17          9.5760    -2.4720    27.4950 h4         1 QYQ       0.046100
     50 H18         11.2990    -3.9350    24.7890 hn         1 QYQ       0.462800
     51 H19          5.2850    -5.1630    19.5730 hc         1 QYQ       0.061700
     52 H20          4.2080    -7.9710    20.0700 hc         1 QYQ       0.075950
     53 H21          5.9000    -7.5300    19.9570 hc         1 QYQ       0.075950
     54 H22          5.1050    -8.4190    17.7860 h1         1 QYQ       0.103950
     55 H23          5.5830    -6.7200    17.6200 h1         1 QYQ       0.103950
     56 H24          3.6860    -4.7170    17.6440 h1         1 QYQ       0.103950
     57 H25          1.9680    -5.1050    17.8420 h1         1 QYQ       0.103950
     58 H26          2.9450    -4.3900    20.0010 hc         1 QYQ       0.075950
     59 H27          2.4150    -6.0550    20.1050 hc         1 QYQ       0.075950
     60 C28          5.7730    -3.5230    21.2500 c3         1 QYQ       0.090300
     61 C29          4.6710    -5.7150    21.5740 c          1 QYQ       0.679100
     62 C22         14.2750    -3.5050    25.0820 c3         1 QYQ       0.113700
     63 H14          6.1930    -2.7450    21.8790 h1         1 QYQ       0.047033
     64 H15          6.5890    -3.9010    20.6370 h1         1 QYQ       0.047033
     65 H16          5.0280    -3.0600    20.6050 h1         1 QYQ       0.047033
@<TRIPOS>BOND
     1     1     8 1   
     2     1    12 1   
     3     1    22 1   
     4     1    36 1   
     5     2     4 1   
     6     2    14 2   
     7     2    18 1   
     8     3    17 2   
     9     3    20 1   
    10     3    37 1   
    11     4    11 1   
    12     4    23 1   
    13     4    38 1   
    14     5     6 ar  
    15     5    10 ar  
    16     5    16 1   
    17     6     7 ar  
    18     6    39 1   
    19     7     8 ar  
    20     7    40 1   
    21     8     9 ar  
    22     9    10 ar  
    23     9    41 1   
    24    10    42 1   
    25    11    46 1   
    26    11    47 1   
    27    11    48 1   
    28    12    24 1   
    29    12    25 1   
    30    12    26 1   
    31    13    15 2   
    32    13    17 1   
    33    14    15 1   
    34    14    16 1   
    35    15    49 1   
    36    16    50 1   
    37    17    18 1   
    38    18    19 1   
    39    19    20 2   
    40    20    21 1   
    41    22    60 1   
    42    22    61 1   
    43    23    62 1   
    44    27    61 2   
    45    28    29 1   
    46    28    33 1   
    47    28    51 1   
    48    28    61 1   
    49    29    30 1   
    50    29    52 1   
    51    29    53 1   
    52    30    31 1   
    53    30    54 1   
    54    30    55 1   
    55    31    32 1   
    56    31    34 2   
    57    31    35 2   
    58    32    33 1   
    59    32    56 1   
    60    32    57 1   
    61    33    58 1   
    62    33    59 1   
    63    43    62 1   
    64    44    62 1   
    65    45    62 1   
    66    60    63 1   
    67    60    64 1   
    68    60    65 1   
@<TRIPOS>SUBSTRUCTURE
     1 QYQ         1 TEMP              0 ****  ****    0 ROOT
