@<TRIPOS>MOLECULE
QYR
   50    54     1     0     0
SMALL
No Charge or Current Charge


@<TRIPOS>ATOM
      1 N1         -21.0150     5.7100    27.1260 ns         1 QYR      -0.161000
      2 C4         -22.5430     7.1430    30.2640 c6         1 QYR       0.257100
      3 C5         -23.6260     6.2180    28.2790 c6         1 QYR       0.214800
      4 C6         -22.9490     4.8300    28.4240 c6         1 QYR      -0.095400
      5 C7         -21.7950     4.6020    27.4240 c          1 QYR       0.609100
      6 C8         -19.9140     5.8790    26.2400 ca         1 QYR      -0.076000
      7 C10        -17.8240     6.1880    24.4550 ca         1 QYR       0.350900
      8 C13        -17.1540     9.0550    26.7410 ca         1 QYR      -0.110000
      9 C15        -19.1290     7.8560    27.5140 ca         1 QYR      -0.092000
     10 C17        -22.3840     4.6200    29.8350 ca         1 QYR      -0.045300
     11 C20        -23.1170    10.0250    25.6860 cx         1 QYR      -0.060900
     12 C21        -22.3000     8.7520    25.6230 cx         1 QYR      -0.060900
     13 O2         -24.5520     9.1550    29.0270 o          1 QYR      -0.536000
     14 O1         -22.1000     9.7640    28.6550 o          1 QYR      -0.536000
     15 C19        -23.4890     8.8420    26.5580 cx         1 QYR      -0.469700
     16 N          -22.7770     7.3050    28.8120 n3         1 QYR      -0.748500
     17 C3         -22.1620     5.7220    30.6920 ca         1 QYR      -0.063300
     18 C2         -21.6150     5.5100    31.9730 ca         1 QYR      -0.099000
     19 C1         -21.2870     4.2120    32.4000 ca         1 QYR      -0.090000
     20 C18        -22.0550     3.3210    30.2720 ca         1 QYR      -0.086000
     21 C          -21.5080     3.1200    31.5490 ca         1 QYR       0.128000
     22 Cl         -21.0980     1.4940    32.0820 cl         1 QYR      -0.205000
     23 O          -21.5740     3.4890    26.9610 o          1 QYR      -0.545100
     24 C16        -19.0090     6.9490    26.4360 ca         1 QYR      -0.023000
     25 C14        -18.2050     8.9050    27.6600 ca         1 QYR      -0.088000
     26 C12        -17.0220     8.1530    25.6720 ca         1 QYR      -0.083000
     27 C11        -17.9460     7.1010    25.5200 ca         1 QYR      -0.088000
     28 N2         -18.6840     5.1630    24.2580 nb         1 QYR      -0.649000
     29 C9         -19.7040     5.0190    25.1360 ca         1 QYR       0.327900
     30 H1         -21.2800     6.5480    27.6310 hn         1 QYR       0.148000
     31 H2         -21.7470     7.8270    30.5930 h1         1 QYR       0.065700
     32 H3         -23.4470     7.4220    30.8260 h1         1 QYR       0.065700
     33 H4         -23.8550     6.3630    27.2140 h1         1 QYR       0.058700
     34 H5         -24.5910     6.2030    28.8080 h1         1 QYR       0.058700
     35 H6         -23.6890     4.0420    28.2370 hc         1 QYR       0.070700
     36 H7         -17.0130     6.2800    23.7330 h4         1 QYR       0.020100
     37 H8         -16.4410     9.8670    26.8580 ha         1 QYR       0.116000
     38 H9         -19.9300     7.7630    28.2420 ha         1 QYR       0.115000
     39 H11        -23.7570    10.2550    24.8370 hc         1 QYR       0.085200
     40 H12        -22.3960     8.1310    24.7340 hc         1 QYR       0.085200
     41 H13        -21.2990     8.7840    26.0440 hc         1 QYR       0.085200
     42 H14        -24.3980     8.2920    26.3310 h1         1 QYR       0.123700
     43 H15        -21.4480     6.3530    32.6420 ha         1 QYR       0.120000
     44 H16        -20.8640     4.0530    33.3890 ha         1 QYR       0.134000
     45 H17        -22.2170     2.4660    29.6210 ha         1 QYR       0.130000
     46 H18        -18.3060     9.6030    28.4890 ha         1 QYR       0.114000
     47 H19        -16.2030     8.2720    24.9650 ha         1 QYR       0.117000
     48 H20        -20.3840     4.1970    24.9200 h4         1 QYR       0.035100
     49 S          -23.2550     8.9010    28.3940 s6         1 QYR       1.287100
     50 H10        -22.6570    10.8940    26.1520 hc         1 QYR       0.085200
@<TRIPOS>BOND
     1     1     5 1   
     2     1     6 1   
     3     1    30 1   
     4     2    16 1   
     5     2    17 1   
     6     2    31 1   
     7     2    32 1   
     8     3     4 1   
     9     3    16 1   
    10     3    33 1   
    11     3    34 1   
    12     4     5 1   
    13     4    10 1   
    14     4    35 1   
    15     5    23 2   
    16     6    24 ar  
    17     6    29 ar  
    18     7    27 ar  
    19     7    28 ar  
    20     7    36 1   
    21     8    25 ar  
    22     8    26 ar  
    23     8    37 1   
    24     9    24 ar  
    25     9    25 ar  
    26     9    38 1   
    27    10    17 ar  
    28    10    20 ar  
    29    11    12 1   
    30    11    15 1   
    31    11    39 1   
    32    11    50 1   
    33    12    15 1   
    34    12    40 1   
    35    12    41 1   
    36    13    49 2   
    37    14    49 2   
    38    15    42 1   
    39    15    49 1   
    40    16    49 1   
    41    17    18 ar  
    42    18    19 ar  
    43    18    43 1   
    44    19    21 ar  
    45    19    44 1   
    46    20    21 ar  
    47    20    45 1   
    48    21    22 1   
    49    24    27 ar  
    50    25    46 1   
    51    26    27 ar  
    52    26    47 1   
    53    28    29 ar  
    54    29    48 1   
@<TRIPOS>SUBSTRUCTURE
     1 QYR         1 TEMP              0 ****  ****    0 ROOT
