@<TRIPOS>MOLECULE
QYR
   50    54     1     0     0
SMALL
abcg2


@<TRIPOS>ATOM
      1 N1         -20.0490     5.4100    26.8570 ns         1 QYR      -0.161000
      2 C4         -23.1380     6.7790    30.3230 c6         1 QYR       0.257100
      3 C5         -22.7340     6.4490    27.9240 c6         1 QYR       0.214800
      4 C6         -22.0870     5.0750    28.1290 c6         1 QYR      -0.095400
      5 C7         -20.5590     5.2140    28.1050 c          1 QYR       0.609100
      6 C8         -18.6990     5.7030    26.5670 ca         1 QYR      -0.076000
      7 C10        -16.0530     6.1650    26.0430 ca         1 QYR       0.350900
      8 C13        -17.5730     8.9290    24.0740 ca         1 QYR      -0.110000
      9 C15        -19.3410     7.6860    25.1720 ca         1 QYR      -0.092000
     10 C17        -22.5580     4.4690    29.4270 ca         1 QYR      -0.045300
     11 C20        -23.7690    10.8900    27.8150 cx         1 QYR      -0.060900
     12 C21        -24.2810     9.6140    27.2200 cx         1 QYR      -0.060900
     13 O2         -21.7090     9.3360    30.2280 o          1 QYR      -0.536000
     14 O1         -21.3370     9.0210    27.7840 o          1 QYR      -0.536000
     15 C19        -23.7310     9.6180    28.6200 cx         1 QYR      -0.469700
     16 N          -22.4560     7.2520    29.1160 n3         1 QYR      -0.748500
     17 C3         -23.0280     5.2790    30.4600 ca         1 QYR      -0.063300
     18 C2         -23.4480     4.6900    31.6530 ca         1 QYR      -0.099000
     19 C1         -23.4040     3.3160    31.8310 ca         1 QYR      -0.090000
     20 C18        -22.5120     3.0860    29.5970 ca         1 QYR      -0.086000
     21 C          -22.9330     2.5250    30.7900 ca         1 QYR       0.128000
     22 CL         -22.8730     0.7850    30.9920 cl         1 QYR      -0.205000
     23 O          -19.8750     5.1850    29.1160 o          1 QYR      -0.545100
     24 C16        -18.3830     6.8050    25.7260 ca         1 QYR      -0.023000
     25 C14        -18.9390     8.7210    24.3650 ca         1 QYR      -0.088000
     26 C12        -16.6220     8.0990    24.6100 ca         1 QYR      -0.083000
     27 C11        -17.0050     7.0260    25.4480 ca         1 QYR      -0.088000
     28 N2         -16.3700     5.1630    26.8310 nb         1 QYR      -0.649000
     29 C9         -17.6830     4.9330    27.0790 ca         1 QYR       0.327900
     30 H1         -20.7020     5.4570    26.0900 hn         1 QYR       0.148000
     31 H2         -22.6890     7.2630    31.1880 h1         1 QYR       0.065700
     32 H3         -24.2010     7.0540    30.3000 h1         1 QYR       0.065700
     33 H4         -22.3240     6.9490    27.0520 h1         1 QYR       0.058700
     34 H5         -23.8130     6.3290    27.7830 h1         1 QYR       0.058700
     35 H6         -22.3840     4.4320    27.2970 hc         1 QYR       0.070700
     36 H7         -14.9990     6.3300    25.8430 h4         1 QYR       0.020100
     37 H8         -17.2820     9.7520    23.4330 ha         1 QYR       0.116000
     38 H9         -20.3890     7.5590    25.4000 ha         1 QYR       0.115000
     39 H11        -24.4780    11.6380    28.1410 hc         1 QYR       0.085200
     40 H12        -25.3480     9.4700    27.1280 hc         1 QYR       0.085200
     41 H13        -23.6820     9.1510    26.4480 hc         1 QYR       0.085200
     42 H14        -24.4100     9.5060    29.4550 h1         1 QYR       0.123700
     43 H15        -23.8160     5.3160    32.4580 ha         1 QYR       0.120000
     44 H16        -23.7290     2.8660    32.7590 ha         1 QYR       0.134000
     45 H17        -22.1490     2.4550    28.7960 ha         1 QYR       0.130000
     46 H18        -19.6790     9.3950    23.9500 ha         1 QYR       0.114000
     47 H19        -15.5700     8.2530    24.4050 ha         1 QYR       0.117000
     48 H20        -17.9130     4.0900    27.7170 h4         1 QYR       0.035100
     49 S          -22.1790     8.8590    28.9470 s6         1 QYR       1.287100
     50 H10        -22.8280    11.2710    27.4430 hc         1 QYR       0.085200
@<TRIPOS>BOND
     1     1     5 1   
     2     1     6 1   
     3     1    30 1   
     4     2    16 1   
     5     2    17 1   
     6     2    31 1   
     7     2    32 1   
     8     3     4 1   
     9     3    16 1   
    10     3    33 1   
    11     3    34 1   
    12     4     5 1   
    13     4    10 1   
    14     4    35 1   
    15     5    23 2   
    16     6    24 ar  
    17     6    29 ar  
    18     7    27 ar  
    19     7    28 ar  
    20     7    36 1   
    21     8    25 ar  
    22     8    26 ar  
    23     8    37 1   
    24     9    24 ar  
    25     9    25 ar  
    26     9    38 1   
    27    10    17 ar  
    28    10    20 ar  
    29    11    12 1   
    30    11    15 1   
    31    11    39 1   
    32    11    50 1   
    33    12    15 1   
    34    12    40 1   
    35    12    41 1   
    36    13    49 2   
    37    14    49 2   
    38    15    42 1   
    39    15    49 1   
    40    16    49 1   
    41    17    18 ar  
    42    18    19 ar  
    43    18    43 1   
    44    19    21 ar  
    45    19    44 1   
    46    20    21 ar  
    47    20    45 1   
    48    21    22 1   
    49    24    27 ar  
    50    25    46 1   
    51    26    27 ar  
    52    26    47 1   
    53    28    29 ar  
    54    29    48 1   
@<TRIPOS>SUBSTRUCTURE
     1 QYR         1 TEMP              0 ****  ****    0 ROOT
