@<TRIPOS>MOLECULE
QYT
   25    27     1     0     0
SMALL
No Charge or Current Charge


@<TRIPOS>ATOM
      1 C1          -2.7390    -1.7670    -0.5980 ca         1 QYT      -0.075000
      2 C2          -1.3780    -2.0480    -0.3960 ca         1 QYT      -0.084000
      3 C3          -0.5270    -1.0750     0.1560 ca         1 QYT      -0.074800
      4 C7           3.4300    -1.0750     0.3200 c          1 QYT       0.585200
      5 C11          3.7720     1.1170    -0.5540 c          1 QYT       0.594600
      6 C13         -2.4240     0.4760     0.3330 ca         1 QYT       0.213000
      7 C14         -3.2830    -0.5190    -0.2460 ca         1 QYT       0.236000
      8 C16         -5.0670     0.9430    -0.0870 ca         1 QYT       0.306900
      9 N18         -2.8970     1.6990     0.7020 nb         1 QYT      -0.616000
     10 C4          -1.0620     0.1740     0.5260 ca         1 QYT      -0.037000
     11 C5           0.9120    -1.3990     0.3710 ce         1 QYT      -0.038200
     12 C6           2.0340    -0.6340     0.1220 cd         1 QYT      -0.121600
     13 S8           1.9610     1.0030    -0.5450 ss         1 QYT      -0.170200
     14 N9           4.2450    -0.0620    -0.0690 ns         1 QYT      -0.480500
     15 O12          4.4560     2.0580    -0.9190 o          1 QYT      -0.460000
     16 N15         -4.6070    -0.2830    -0.4570 nb         1 QYT      -0.624000
     17 C17         -4.2210     1.9220     0.4870 ca         1 QYT       0.298900
     18 H1          -3.3830    -2.5270    -1.0330 ha         1 QYT       0.139000
     19 H2          -0.9840    -3.0220    -0.6780 ha         1 QYT       0.124000
     20 H16         -6.1240     1.1430    -0.2500 h4         1 QYT       0.033100
     21 H4          -0.4230     0.9230     0.9840 ha         1 QYT       0.145000
     22 H5           1.1050    -2.4120     0.7300 ha         1 QYT       0.205000
     23 HN9          5.2430    -0.1910    -0.0000 hn         1 QYT       0.353500
     24 H17         -4.6110     2.8970     0.7770 h4         1 QYT       0.034100
     25 O10          3.8150    -2.1490     0.7510 o          1 QYT      -0.487000
@<TRIPOS>BOND
     1     1     2 ar  
     2     1     7 ar  
     3     1    18 1   
     4     2     3 ar  
     5     2    19 1   
     6     3    10 ar  
     7     3    11 1   
     8     4    12 1   
     9     4    14 1   
    10     4    25 2   
    11     5    13 1   
    12     5    14 1   
    13     5    15 2   
    14     6     7 ar  
    15     6     9 ar  
    16     6    10 ar  
    17     7    16 ar  
    18     8    16 ar  
    19     8    17 ar  
    20     8    20 1   
    21     9    17 ar  
    22    10    21 1   
    23    11    12 2   
    24    11    22 1   
    25    12    13 1   
    26    14    23 1   
    27    17    24 1   
@<TRIPOS>SUBSTRUCTURE
     1 QYT         1 TEMP              0 ****  ****    0 ROOT
