@<TRIPOS>MOLECULE
QYT
   25    27     1     0     0
SMALL
abcg2


@<TRIPOS>ATOM
      1 C1          -2.7550    -1.8480    -0.3690 ca         1 QYT      -0.075000
      2 C2          -1.4130    -2.0640    -0.2540 ca         1 QYT      -0.084000
      3 C3          -0.5140    -1.0100     0.0680 ca         1 QYT      -0.074800
      4 C7           3.3450    -1.1130     0.1560 c          1 QYT       0.585200
      5 C11          3.8100     1.1680    -0.2170 c          1 QYT       0.594600
      6 C13         -2.4020     0.4950     0.1990 ca         1 QYT       0.213000
      7 C14         -3.2810    -0.5580    -0.1470 ca         1 QYT       0.236000
      8 C16         -5.0350     0.8650    -0.0230 ca         1 QYT       0.306900
      9 N18         -2.8710     1.7430     0.4410 nb         1 QYT      -0.616000
     10 C4          -1.0200     0.2510     0.3000 ca         1 QYT      -0.037000
     11 C5           0.8980    -1.3500     0.1460 ce         1 QYT      -0.038200
     12 C6           1.9710    -0.5520     0.0710 cd         1 QYT      -0.121600
     13 S8           2.0310     1.1780    -0.1930 ss         1 QYT      -0.170200
     14 N9           4.2630    -0.1060    -0.0140 ns         1 QYT      -0.480500
     15 O12          4.4780     2.1480    -0.3840 o          1 QYT      -0.460000
     16 N15         -4.6130    -0.3450    -0.2550 nb         1 QYT      -0.624000
     17 C17         -4.1550     1.9190     0.3300 ca         1 QYT       0.298900
     18 H1          -3.4310    -2.6530    -0.6230 ha         1 QYT       0.139000
     19 H2          -1.0140    -3.0570    -0.4200 ha         1 QYT       0.124000
     20 H16         -6.0990     1.0570    -0.1060 h4         1 QYT       0.033100
     21 H4          -0.3990     1.0840     0.6020 ha         1 QYT       0.145000
     22 H5           1.1140    -2.4080     0.2560 ha         1 QYT       0.205000
     23 HN9          5.2590    -0.2940     0.0030 hn         1 QYT       0.353500
     24 H17         -4.5510     2.9110     0.5180 h4         1 QYT       0.034100
     25 O10          3.6280    -2.2700     0.3410 o          1 QYT      -0.487000
@<TRIPOS>BOND
     1     1     2 ar  
     2     1     7 ar  
     3     1    18 1   
     4     2     3 ar  
     5     2    19 1   
     6     3    10 ar  
     7     3    11 1   
     8     4    12 1   
     9     4    14 1   
    10     4    25 2   
    11     5    13 1   
    12     5    14 1   
    13     5    15 2   
    14     6     7 ar  
    15     6     9 ar  
    16     6    10 ar  
    17     7    16 ar  
    18     8    16 ar  
    19     8    17 ar  
    20     8    20 1   
    21     9    17 ar  
    22    10    21 1   
    23    11    12 2   
    24    11    22 1   
    25    12    13 1   
    26    14    23 1   
    27    17    24 1   
@<TRIPOS>SUBSTRUCTURE
     1 QYT         1 TEMP              0 ****  ****    0 ROOT
