@<TRIPOS>MOLECULE
QYU
   36    39     1     0     0
SMALL
abcg2


@<TRIPOS>ATOM
      1 C02        -46.1710   -27.9210     0.3240 c5         1 QYU       0.164300
      2 C03        -45.6960   -29.2930    -0.1400 c5         1 QYU      -0.073400
      3 C04        -44.3120   -29.4090     0.4980 c5         1 QYU      -0.078400
      4 C05        -44.4990   -28.8340     1.9120 c5         1 QYU       0.178500
      5 C07        -45.0400   -29.5960     4.1830 ca         1 QYU       0.334900
      6 C08        -46.2740   -29.2740     4.7380 cp         1 QYU      -0.154000
      7 C09        -47.6600   -29.2570     4.3240 cp         1 QYU      -0.079000
      8 C10        -48.4060   -28.8650     5.4670 ca         1 QYU       0.012800
      9 C11        -49.7910   -28.7510     5.4460 ca         1 QYU      -0.183000
     10 C12        -50.4010   -29.0570     4.2450 ca         1 QYU       0.194000
     11 C13        -49.7160   -29.4570     3.1010 ca         1 QYU      -0.175000
     12 C14        -48.3330   -29.5570     3.1410 ca         1 QYU      -0.014000
     13 C17        -46.2590   -28.9230     6.1140 ca         1 QYU       0.176500
     14 C19        -44.0640   -29.2760     6.2470 ca         1 QYU       0.158900
     15 C21        -45.5880   -27.7530     1.7500 c5         1 QYU      -0.119400
     16 F15        -51.7550   -28.9660     4.1790 f          1 QYU      -0.182000
     17 N06        -44.8910   -29.9500     2.8260 nu         1 QYU      -0.847100
     18 N16        -47.5350   -28.6580     6.5230 na         1 QYU      -0.335300
     19 N18        -45.1760   -28.9050     6.8840 nb         1 QYU      -0.207000
     20 N20        -43.9430   -29.6120     4.9610 nb         1 QYU      -0.258000
     21 O01        -47.5970   -27.8460     0.2560 oh         1 QYU      -0.662000
     22 H021       -45.7460   -27.1520    -0.3310 h1         1 QYU       0.029700
     23 H031       -46.3670   -30.0570     0.2630 hc         1 QYU       0.061700
     24 H032       -45.6840   -29.3900    -1.2260 hc         1 QYU       0.061700
     25 H042       -43.9200   -30.4260     0.5140 hc         1 QYU       0.051700
     26 H041       -43.5970   -28.7860    -0.0450 hc         1 QYU       0.051700
     27 H051       -43.5690   -28.3930     2.2830 h1         1 QYU       0.045700
     28 H111       -50.3670   -28.4520     6.3110 ha         1 QYU       0.138000
     29 H131       -50.2710   -29.6790     2.2000 ha         1 QYU       0.139000
     30 H141       -47.7880   -29.8570     2.2590 ha         1 QYU       0.147000
     31 H191       -43.1560   -29.3050     6.8400 h5         1 QYU       0.052100
     32 H212       -46.3790   -27.8610     2.4870 hc         1 QYU       0.060700
     33 H211       -45.1590   -26.7600     1.8810 hc         1 QYU       0.060700
     34 H061       -44.1220   -30.6150     2.7870 hn         1 QYU       0.434000
     35 H161       -47.7990   -28.4130     7.4650 hn         1 QYU       0.370000
     36 H011       -47.8700   -26.9630     0.5360 ho         1 QYU       0.443000
@<TRIPOS>BOND
     1     1     2 1   
     2     1    15 1   
     3     1    21 1   
     4     1    22 1   
     5     2     3 1   
     6     2    23 1   
     7     2    24 1   
     8     3     4 1   
     9     3    25 1   
    10     3    26 1   
    11     4    15 1   
    12     4    17 1   
    13     4    27 1   
    14     5     6 ar  
    15     5    17 1   
    16     5    20 ar  
    17     6     7 1   
    18     6    13 ar  
    19     7     8 ar  
    20     7    12 ar  
    21     8     9 ar  
    22     8    18 1   
    23     9    10 ar  
    24     9    28 1   
    25    10    11 ar  
    26    10    16 1   
    27    11    12 ar  
    28    11    29 1   
    29    12    30 1   
    30    13    18 1   
    31    13    19 ar  
    32    14    19 ar  
    33    14    20 ar  
    34    14    31 1   
    35    15    32 1   
    36    15    33 1   
    37    17    34 1   
    38    18    35 1   
    39    21    36 1   
@<TRIPOS>SUBSTRUCTURE
     1 QYU         1 TEMP              0 ****  ****    0 ROOT
