@<TRIPOS>MOLECULE
QYU
   36    39     1     0     0
SMALL
No Charge or Current Charge


@<TRIPOS>ATOM
      1 C02        -45.5980   -27.4740     0.2620 c5         1 QYU       0.164300
      2 C03        -45.0930   -28.6940    -0.5770 c5         1 QYU      -0.073400
      3 C04        -44.7780   -29.8120     0.4710 c5         1 QYU      -0.078400
      4 C05        -44.8060   -29.0400     1.8160 c5         1 QYU       0.178500
      5 C07        -45.1550   -29.4960     4.1160 ca         1 QYU       0.334900
      6 C08        -46.3180   -29.2130     4.8630 cp         1 QYU      -0.154000
      7 C09        -47.7420   -29.4150     4.6070 cp         1 QYU      -0.079000
      8 C10        -48.4400   -28.9160     5.7000 ca         1 QYU       0.012800
      9 C11        -49.8320   -28.9540     5.8010 ca         1 QYU      -0.183000
     10 C12        -50.5370   -29.5360     4.7290 ca         1 QYU       0.194000
     11 C13        -49.8520   -30.0680     3.6100 ca         1 QYU      -0.175000
     12 C14        -48.4410   -30.0180     3.5410 ca         1 QYU      -0.014000
     13 C17        -46.1620   -28.6220     6.1210 ca         1 QYU       0.176500
     14 C19        -43.9000   -28.6810     5.8740 ca         1 QYU       0.158900
     15 C21        -46.0360   -28.1300     1.5920 c5         1 QYU      -0.119400
     16 F15        -51.8850   -29.6000     4.7760 f          1 QYU      -0.182000
     17 N06        -45.1860   -30.0530     2.8370 nu         1 QYU      -0.847100
     18 N16        -47.4710   -28.4420     6.5930 na         1 QYU      -0.335300
     19 N18        -44.9590   -28.3440     6.6490 nb         1 QYU      -0.207000
     20 N20        -43.9370   -29.2430     4.6390 nb         1 QYU      -0.258000
     21 O01        -46.6720   -26.7880    -0.3750 oh         1 QYU      -0.662000
     22 H021       -44.7660   -26.7780     0.4470 h1         1 QYU       0.029700
     23 H031       -45.8490   -29.0400    -1.2930 hc         1 QYU       0.061700
     24 H032       -44.2070   -28.4230    -1.1620 hc         1 QYU       0.061700
     25 H042       -45.5440   -30.5970     0.4230 hc         1 QYU       0.051700
     26 H041       -43.8110   -30.2950     0.2910 hc         1 QYU       0.051700
     27 H051       -43.8740   -28.4910     2.0180 h1         1 QYU       0.045700
     28 H111       -50.3520   -28.5580     6.6690 ha         1 QYU       0.138000
     29 H131       -50.4170   -30.5230     2.8020 ha         1 QYU       0.139000
     30 H141       -47.9090   -30.4430     2.6940 ha         1 QYU       0.147000
     31 H191       -42.9130   -28.4730     6.2840 h5         1 QYU       0.052100
     32 H212       -46.9700   -28.6900     1.4750 hc         1 QYU       0.060700
     33 H211       -46.1750   -27.3990     2.3960 hc         1 QYU       0.060700
     34 H061       -44.6880   -30.9410     2.7980 hn         1 QYU       0.434000
     35 H161       -47.6840   -28.0190     7.4890 hn         1 QYU       0.370000
     36 H011       -46.9400   -26.0600     0.2270 ho         1 QYU       0.443000
@<TRIPOS>BOND
     1     1     2 1   
     2     1    15 1   
     3     1    21 1   
     4     1    22 1   
     5     2     3 1   
     6     2    23 1   
     7     2    24 1   
     8     3     4 1   
     9     3    25 1   
    10     3    26 1   
    11     4    15 1   
    12     4    17 1   
    13     4    27 1   
    14     5     6 ar  
    15     5    17 1   
    16     5    20 ar  
    17     6     7 1   
    18     6    13 ar  
    19     7     8 ar  
    20     7    12 ar  
    21     8     9 ar  
    22     8    18 1   
    23     9    10 ar  
    24     9    28 1   
    25    10    11 ar  
    26    10    16 1   
    27    11    12 ar  
    28    11    29 1   
    29    12    30 1   
    30    13    18 1   
    31    13    19 ar  
    32    14    19 ar  
    33    14    20 ar  
    34    14    31 1   
    35    15    32 1   
    36    15    33 1   
    37    17    34 1   
    38    18    35 1   
    39    21    36 1   
@<TRIPOS>SUBSTRUCTURE
     1 QYU         1 TEMP              0 ****  ****    0 ROOT
