@<TRIPOS>MOLECULE
QYW
   29    31     1     0     0
SMALL
No Charge or Current Charge


@<TRIPOS>ATOM
      1 C1          45.0620     4.0530    18.2060 c3         1 QYW      -0.134400
      2 C2          44.4080     4.5700    16.9370 ca         1 QYW       0.210300
      3 N1          44.1570     5.9010    16.8800 nb         1 QYW      -0.307000
      4 C3          43.5820     6.3510    15.7560 ca         1 QYW       0.451900
      5 N2          43.3370     7.6850    15.7190 nv         1 QYW      -1.070900
      6 C4          43.2750     5.4710    14.7120 ca         1 QYW      -0.239800
      7 C5          43.5640     4.1350    14.8550 ca         1 QYW       0.163500
      8 N3          43.1560     3.4910    13.7040 na         1 QYW      -0.303400
      9 C6          42.6260     4.4110    12.7860 cc         1 QYW       0.039700
     10 C7          42.6580     5.6580    13.4070 cd         1 QYW      -0.012900
     11 C8          42.1170     6.8620    12.8720 ch         1 QYW       0.315700
     12 N4          41.6960     7.8670    12.4520 n1         1 QYW      -0.467000
     13 C9          42.0180     4.1100    11.4870 ca         1 QYW      -0.109800
     14 C10         41.2470     2.9440    11.3240 ca         1 QYW      -0.061000
     15 C11         40.6930     2.6740    10.0620 ca         1 QYW      -0.163000
     16 C12         40.9320     3.5640     9.0030 ca         1 QYW       0.349900
     17 N5          41.6840     4.6790     9.1380 nb         1 QYW      -0.659000
     18 C13         42.2140     4.9390    10.3580 ca         1 QYW       0.369900
     19 N6          44.1380     3.6570    15.9730 nb         1 QYW      -0.237000
     20 H1          44.7790     3.0120    18.4070 hc         1 QYW       0.059367
     21 H2          46.1540     4.0930    18.1230 hc         1 QYW       0.059367
     22 H3          44.7690     4.6470    19.0790 hc         1 QYW       0.059367
     23 H4          43.7830     8.2680    16.4220 hn         1 QYW       0.505500
     24 H5          43.1370     8.1250    14.8250 hn         1 QYW       0.505500
     25 H6          43.2390     2.4930    13.5500 hn         1 QYW       0.368000
     26 H7          41.0700     2.2670    12.1580 ha         1 QYW       0.121000
     27 H8          40.0860     1.7880     9.9000 ha         1 QYW       0.129000
     28 H9          40.5130     3.3760     8.0140 h4         1 QYW       0.025100
     29 H10         42.8340     5.8320    10.4220 h4         1 QYW       0.032100
@<TRIPOS>BOND
     1     1     2 1   
     2     1    20 1   
     3     1    21 1   
     4     1    22 1   
     5     2     3 ar  
     6     2    19 ar  
     7     3     4 ar  
     8     4     5 1   
     9     4     6 ar  
    10     5    23 1   
    11     5    24 1   
    12     6     7 ar  
    13     6    10 1   
    14     7     8 1   
    15     7    19 ar  
    16     8     9 1   
    17     8    25 1   
    18     9    10 2   
    19     9    13 1   
    20    10    11 1   
    21    11    12 3   
    22    13    14 ar  
    23    13    18 ar  
    24    14    15 ar  
    25    14    26 1   
    26    15    16 ar  
    27    15    27 1   
    28    16    17 ar  
    29    16    28 1   
    30    17    18 ar  
    31    18    29 1   
@<TRIPOS>SUBSTRUCTURE
     1 QYW         1 TEMP              0 ****  ****    0 ROOT
