@<TRIPOS>MOLECULE
QYW
   29    31     1     0     0
SMALL
abcg2


@<TRIPOS>ATOM
      1 C1          45.0210     3.9570    18.0720 c3         1 QYW      -0.134400
      2 C2          44.3850     4.5120    16.8370 ca         1 QYW       0.210300
      3 N1          44.2120     5.8370    16.8130 nb         1 QYW      -0.307000
      4 C3          43.6510     6.4160    15.7530 ca         1 QYW       0.451900
      5 N2          43.4890     7.7420    15.7680 nv         1 QYW      -1.070900
      6 C4          43.2510     5.6030    14.6700 ca         1 QYW      -0.239800
      7 C5          43.4880     4.2420    14.8300 ca         1 QYW       0.163500
      8 N3          43.0500     3.6070    13.7090 na         1 QYW      -0.303400
      9 C6          42.5440     4.5050    12.8210 cc         1 QYW       0.039700
     10 C7          42.6430     5.7650    13.3840 cd         1 QYW      -0.012900
     11 C8          42.1510     6.9570    12.8200 ch         1 QYW       0.315700
     12 N4          41.7480     7.9490    12.3870 n1         1 QYW      -0.467000
     13 C9          41.9950     4.1010    11.5340 ca         1 QYW      -0.109800
     14 C10         41.2400     2.9380    11.3940 ca         1 QYW      -0.061000
     15 C11         40.7420     2.6110    10.1460 ca         1 QYW      -0.163000
     16 C12         41.0090     3.4580     9.0810 ca         1 QYW       0.349900
     17 N5          41.7350     4.5640     9.1980 nb         1 QYW      -0.659000
     18 C13         42.2180     4.8700    10.3910 ca         1 QYW       0.369900
     19 N6          44.0500     3.6580    15.8840 nb         1 QYW      -0.237000
     20 H1          45.1050     2.8750    18.0180 hc         1 QYW       0.059367
     21 H2          46.0180     4.3780    18.2110 hc         1 QYW       0.059367
     22 H3          44.4380     4.2200    18.9550 hc         1 QYW       0.059367
     23 H4          43.8310     8.2730    16.5510 hn         1 QYW       0.505500
     24 H5          43.1290     8.2520    14.9810 hn         1 QYW       0.505500
     25 H6          43.1510     2.6160    13.5390 hn         1 QYW       0.368000
     26 H7          41.0300     2.3040    12.2470 ha         1 QYW       0.121000
     27 H8          40.1470     1.7200    10.0010 ha         1 QYW       0.129000
     28 H9          40.6250     3.2320     8.0920 h4         1 QYW       0.025100
     29 H10         42.8340     5.7620    10.4450 h4         1 QYW       0.032100
@<TRIPOS>BOND
     1     1     2 1   
     2     1    20 1   
     3     1    21 1   
     4     1    22 1   
     5     2     3 ar  
     6     2    19 ar  
     7     3     4 ar  
     8     4     5 1   
     9     4     6 ar  
    10     5    23 1   
    11     5    24 1   
    12     6     7 ar  
    13     6    10 1   
    14     7     8 1   
    15     7    19 ar  
    16     8     9 1   
    17     8    25 1   
    18     9    10 2   
    19     9    13 1   
    20    10    11 1   
    21    11    12 3   
    22    13    14 ar  
    23    13    18 ar  
    24    14    15 ar  
    25    14    26 1   
    26    15    16 ar  
    27    15    27 1   
    28    16    17 ar  
    29    16    28 1   
    30    17    18 ar  
    31    18    29 1   
@<TRIPOS>SUBSTRUCTURE
     1 QYW         1 TEMP              0 ****  ****    0 ROOT
