@<TRIPOS>MOLECULE
QYX
   41    43     1     0     0
SMALL
No Charge or Current Charge


@<TRIPOS>ATOM
      1 N1         -39.2090    17.6150   -20.2240 n2         1 QYX      -0.717100
      2 CE         -40.2860    16.7840   -25.0950 c3         1 QYX       0.036900
      3 SD         -41.4360    18.1350   -24.5640 ss         1 QYX      -0.421000
      4 CG1        -40.6630    18.6280   -22.9550 c3         1 QYX       0.059600
      5 CB1        -41.0080    17.6150   -21.8430 c3         1 QYX      -0.109700
      6 CA1        -40.4120    17.9950   -20.5010 c2         1 QYX       0.436300
      7 C1         -41.2760    18.8490   -19.5070 c5         1 QYX       0.351300
      8 N2         -42.4640    18.0890   -18.9900 n2         1 QYX      -0.524900
      9 CD2        -42.0770    15.5100   -15.3390 ca         1 QYX      -0.054500
     10 CE2        -41.7180    14.1770   -15.0730 ca         1 QYX      -0.176000
     11 CZ         -42.1520    13.1490   -15.9250 ca         1 QYX       0.150100
     12 CE1        -42.9430    13.4520   -17.0420 ca         1 QYX      -0.176000
     13 CD1        -43.3050    14.7830   -17.3110 ca         1 QYX      -0.054500
     14 CG2        -42.8750    15.8180   -16.4580 ca         1 QYX      -0.141300
     15 CA2        -42.2900    17.9500   -17.7040 ce         1 QYX       0.391300
     16 C2         -41.1410    18.7430   -17.1950 c          1 QYX       0.424700
     17 O2         -40.8200    18.9870   -16.0390 o          1 QYX      -0.448000
     18 N3         -40.5090    19.2200   -18.3200 n          1 QYX      -0.427800
     19 CA3        -40.1100    20.6280   -18.4580 c5         1 QYX      -0.026000
     20 C3         -40.9030    21.1220   -19.6750 c          1 QYX       0.635100
     21 O3         -41.0270    22.2750   -20.0600 o          1 QYX      -0.441000
     22 H          -38.9640    17.9620   -19.2840 hn         1 QYX       0.402400
     23 HE1A       -40.5830    16.4150   -26.0850 h1         1 QYX       0.060367
     24 HE2A       -39.2590    17.1680   -25.1510 h1         1 QYX       0.060367
     25 HE3        -40.3220    15.9530   -24.3810 h1         1 QYX       0.060367
     26 HG11       -39.5740    18.7000   -23.0780 h1         1 QYX       0.076200
     27 HG12       -41.0410    19.6210   -22.6780 h1         1 QYX       0.076200
     28 HB11       -42.0980    17.5320   -21.7580 hc         1 QYX       0.077200
     29 HB12       -40.6470    16.6230   -22.1350 hc         1 QYX       0.077200
     30 HOH        -41.2590    11.8320   -14.8600 ho         1 QYX       0.467000
     31 HD2        -41.7340    16.3010   -14.6750 ha         1 QYX       0.120000
     32 HE2        -41.1020    13.9520   -14.2050 ha         1 QYX       0.125000
     33 HE1        -43.2770    12.6550   -17.7020 ha         1 QYX       0.125000
     34 HD1        -43.9160    15.0090   -18.1830 ha         1 QYX       0.120000
     35 HB2        -43.3110    17.8300   -15.8200 hc         1 QYX       0.081200
     36 H15        -44.2700    17.3100   -17.1740 hc         1 QYX       0.081200
     37 HA31       -39.0380    20.7370   -18.6670 h1         1 QYX       0.106700
     38 HA32       -40.3820    21.2380   -17.5870 h1         1 QYX       0.106700
     39 OXT        -41.6800    20.0850   -20.1320 os         1 QYX      -0.409100
     40 CB2        -43.2570    17.2640   -16.7570 c3         1 QYX      -0.048400
     41 OH         -41.8070    11.8550   -15.6740 oh         1 QYX      -0.530100
@<TRIPOS>BOND
     1     1     6 2   
     2     1    22 1   
     3     2     3 1   
     4     2    23 1   
     5     2    24 1   
     6     2    25 1   
     7     3     4 1   
     8     4     5 1   
     9     4    26 1   
    10     4    27 1   
    11     5     6 1   
    12     5    28 1   
    13     5    29 1   
    14     6     7 1   
    15     7     8 1   
    16     7    18 1   
    17     7    39 1   
    18     8    15 2   
    19     9    10 ar  
    20     9    14 ar  
    21     9    31 1   
    22    10    11 ar  
    23    10    32 1   
    24    11    12 ar  
    25    11    41 1   
    26    12    13 ar  
    27    12    33 1   
    28    13    14 ar  
    29    13    34 1   
    30    14    40 1   
    31    15    16 1   
    32    15    40 1   
    33    16    17 2   
    34    16    18 1   
    35    18    19 1   
    36    19    20 1   
    37    19    37 1   
    38    19    38 1   
    39    20    21 2   
    40    20    39 1   
    41    30    41 1   
    42    35    40 1   
    43    36    40 1   
@<TRIPOS>SUBSTRUCTURE
     1 QYX         1 TEMP              0 ****  ****    0 ROOT
