@<TRIPOS>MOLECULE
QYX
   41    43     1     0     0
SMALL
abcg2


@<TRIPOS>ATOM
      1 N1         -39.5770    17.1900   -20.3090 n2         1 QYX      -0.717100
      2 CE         -40.6990    17.0230   -25.1160 c3         1 QYX       0.036900
      3 SD         -41.0920    18.7040   -24.5800 ss         1 QYX      -0.421000
      4 CG1        -40.4140    18.6910   -22.9010 c3         1 QYX       0.059600
      5 CB1        -41.2360    17.8510   -21.9230 c3         1 QYX      -0.109700
      6 CA1        -40.6130    17.8640   -20.5530 c2         1 QYX       0.436300
      7 C1         -41.3110    18.7290   -19.5040 c5         1 QYX       0.351300
      8 N2         -42.5420    18.0840   -19.1330 n2         1 QYX      -0.524900
      9 CD2        -42.6680    15.6390   -15.2360 ca         1 QYX      -0.054500
     10 CE2        -42.1050    14.4560   -14.7810 ca         1 QYX      -0.176000
     11 CZ         -41.7580    13.4560   -15.6860 ca         1 QYX       0.150100
     12 CE1        -41.9830    13.6590   -17.0470 ca         1 QYX      -0.176000
     13 CD1        -42.5480    14.8440   -17.4850 ca         1 QYX      -0.054500
     14 CG2        -42.9060    15.8500   -16.5880 ca         1 QYX      -0.141300
     15 CA2        -42.5100    17.8820   -17.8800 ce         1 QYX       0.391300
     16 C2         -41.3010    18.5220   -17.2360 c          1 QYX       0.424700
     17 O2         -41.0770    18.6820   -16.0670 o          1 QYX      -0.448000
     18 N3         -40.5510    18.9420   -18.3040 n          1 QYX      -0.427800
     19 CA3        -39.8790    20.2140   -18.3910 c5         1 QYX      -0.026000
     20 C3         -40.6780    20.9120   -19.4770 c          1 QYX       0.635100
     21 O3         -40.6160    22.0440   -19.8360 o          1 QYX      -0.441000
     22 H          -39.2620    17.3130   -19.3490 hn         1 QYX       0.402400
     23 HE1A       -41.0060    16.9360   -26.1570 h1         1 QYX       0.060367
     24 HE2A       -39.6270    16.8350   -25.0530 h1         1 QYX       0.060367
     25 HE3        -41.2330    16.2730   -24.5370 h1         1 QYX       0.060367
     26 HG11       -39.3820    18.3370   -22.9360 h1         1 QYX       0.076200
     27 HG12       -40.3900    19.7350   -22.5880 h1         1 QYX       0.076200
     28 HB11       -42.2630    18.2160   -21.8970 hc         1 QYX       0.077200
     29 HB12       -41.2700    16.8150   -22.2640 hc         1 QYX       0.077200
     30 HOH        -41.0900    12.2610   -14.3530 ho         1 QYX       0.467000
     31 HD2        -42.9330    16.4050   -14.5170 ha         1 QYX       0.120000
     32 HE2        -41.9370    14.3150   -13.7190 ha         1 QYX       0.125000
     33 HE1        -41.7160    12.8860   -17.7570 ha         1 QYX       0.125000
     34 HD1        -42.7180    14.9830   -18.5460 ha         1 QYX       0.120000
     35 HB2        -43.8500    17.7490   -16.2520 hc         1 QYX       0.081200
     36 H15        -44.3880    16.9380   -17.7230 hc         1 QYX       0.081200
     37 HA31       -38.8350    20.1180   -18.6970 h1         1 QYX       0.106700
     38 HA32       -39.9150    20.7670   -17.4520 h1         1 QYX       0.106700
     39 OXT        -41.5320    20.0260   -20.0320 os         1 QYX      -0.409100
     40 CB2        -43.5200    17.1350   -17.0930 c3         1 QYX      -0.048400
     41 OH         -41.2120    12.2850   -15.3090 oh         1 QYX      -0.530100
@<TRIPOS>BOND
     1     1     6 2   
     2     1    22 1   
     3     2     3 1   
     4     2    23 1   
     5     2    24 1   
     6     2    25 1   
     7     3     4 1   
     8     4     5 1   
     9     4    26 1   
    10     4    27 1   
    11     5     6 1   
    12     5    28 1   
    13     5    29 1   
    14     6     7 1   
    15     7     8 1   
    16     7    18 1   
    17     7    39 1   
    18     8    15 2   
    19     9    10 ar  
    20     9    14 ar  
    21     9    31 1   
    22    10    11 ar  
    23    10    32 1   
    24    11    12 ar  
    25    11    41 1   
    26    12    13 ar  
    27    12    33 1   
    28    13    14 ar  
    29    13    34 1   
    30    14    40 1   
    31    15    16 1   
    32    15    40 1   
    33    16    17 2   
    34    16    18 1   
    35    18    19 1   
    36    19    20 1   
    37    19    37 1   
    38    19    38 1   
    39    20    21 2   
    40    20    39 1   
    41    30    41 1   
    42    35    40 1   
    43    36    40 1   
@<TRIPOS>SUBSTRUCTURE
     1 QYX         1 TEMP              0 ****  ****    0 ROOT
