@<TRIPOS>MOLECULE
QYZ
   28    30     1     0     0
SMALL
No Charge or Current Charge


@<TRIPOS>ATOM
      1 C1         -24.4330   -23.4700   -11.1640 c3         1 QYZ      -0.128400
      2 N1         -18.4530   -28.0100   -10.2800 ns         1 QYZ      -0.404100
      3 O1         -22.8990   -25.1980   -10.2640 os         1 QYZ      -0.231000
      4 C2         -23.9380   -24.3260   -10.0370 cc         1 QYZ       0.157300
      5 O2         -19.7660   -29.3310    -8.9040 o          1 QYZ      -0.533000
      6 C3         -24.3460   -24.4250    -8.7370 cd         1 QYZ      -0.193000
      7 C4         -23.5240   -25.3930    -8.1240 cd         1 QYZ      -0.135000
      8 C5         -22.6410   -25.8370    -9.0710 cc         1 QYZ       0.151800
      9 C6         -21.6010   -26.8520    -8.9810 ce         1 QYZ      -0.163800
     10 C7         -20.3670   -27.0400    -9.5760 cd         1 QYZ      -0.123400
     11 C8         -19.5410   -28.2870    -9.4990 c          1 QYZ       0.560200
     12 C9         -18.4440   -26.7380   -10.8370 ca         1 QYZ       0.065600
     13 C10        -19.5990   -26.0960   -10.4180 ca         1 QYZ      -0.098800
     14 C11        -19.8210   -24.7520   -10.7630 ca         1 QYZ      -0.040000
     15 C12        -18.8680   -24.1050   -11.5800 ca         1 QYZ      -0.151000
     16 C13        -17.7090   -24.7860   -12.0240 ca         1 QYZ      -0.069000
     17 C14        -17.4810   -26.1240   -11.6410 ca         1 QYZ      -0.154000
     18 H1         -23.6130   -22.8840   -11.5950 hc         1 QYZ       0.057700
     19 H2         -24.8650   -24.0880   -11.9590 hc         1 QYZ       0.057700
     20 H3         -25.2040   -22.7720   -10.8170 hc         1 QYZ       0.057700
     21 H4         -17.7050   -28.6790   -10.4180 hn         1 QYZ       0.340500
     22 H5         -25.1510   -23.8650    -8.2730 ha         1 QYZ       0.144000
     23 H6         -23.5740   -25.7280    -7.0930 ha         1 QYZ       0.146000
     24 H7         -21.9060   -27.6870    -8.3490 ha         1 QYZ       0.208000
     25 H8         -20.6840   -24.2040   -10.4010 ha         1 QYZ       0.128000
     26 H9         -19.0210   -23.0660   -11.8630 ha         1 QYZ       0.115000
     27 H10        -16.9820   -24.2700   -12.6480 ha         1 QYZ       0.114000
     28 H11        -16.5850   -26.6540   -11.9530 ha         1 QYZ       0.120000
@<TRIPOS>BOND
     1     1     4 1   
     2     1    18 1   
     3     1    19 1   
     4     1    20 1   
     5     2    11 1   
     6     2    12 1   
     7     2    21 1   
     8     3     4 1   
     9     3     8 1   
    10     4     6 2   
    11     5    11 2   
    12     6     7 1   
    13     6    22 1   
    14     7     8 2   
    15     7    23 1   
    16     8     9 1   
    17     9    10 2   
    18     9    24 1   
    19    10    11 1   
    20    10    13 1   
    21    12    13 ar  
    22    12    17 ar  
    23    13    14 ar  
    24    14    15 ar  
    25    14    25 1   
    26    15    16 ar  
    27    15    26 1   
    28    16    17 ar  
    29    16    27 1   
    30    17    28 1   
@<TRIPOS>SUBSTRUCTURE
     1 QYZ         1 TEMP              0 ****  ****    0 ROOT
