@<TRIPOS>MOLECULE
QYZ
   28    30     1     0     0
SMALL
bcc


@<TRIPOS>ATOM
      1 C1         -24.0810   -23.0160   -10.6570 c3         1 QYZ      -0.128400
      2 N1         -18.3220   -27.7680    -9.9120 ns         1 QYZ      -0.471100
      3 O1         -22.7000   -24.8630    -9.9410 os         1 QYZ      -0.319800
      4 C2         -23.8730   -24.2180    -9.8230 cc         1 QYZ       0.267000
      5 O2         -19.6660   -28.8550    -8.3980 o          1 QYZ      -0.608500
      6 C3         -24.6550   -24.8510    -8.9010 cd         1 QYZ      -0.276300
      7 C4         -23.9030   -25.9500    -8.4290 cd         1 QYZ      -0.218300
      8 C5         -22.7040   -25.9200    -9.0940 cc         1 QYZ       0.261500
      9 C6         -21.5990   -26.8010    -8.9810 ce         1 QYZ      -0.113800
     10 C7         -20.3840   -26.8400    -9.5760 cd         1 QYZ      -0.123400
     11 C8         -19.4640   -27.9530    -9.1900 c          1 QYZ       0.702700
     12 C9         -18.4070   -26.6530   -10.7270 ca         1 QYZ       0.065600
     13 C10        -19.6630   -26.0410   -10.5600 ca         1 QYZ      -0.098800
     14 C11        -19.9430   -24.8970   -11.2980 ca         1 QYZ      -0.058000
     15 C12        -18.9850   -24.3930   -12.1740 ca         1 QYZ      -0.169000
     16 C13        -17.7530   -25.0190   -12.3190 ca         1 QYZ      -0.087000
     17 C14        -17.4470   -26.1650   -11.5920 ca         1 QYZ      -0.172000
     18 H1         -23.3560   -22.2350   -10.4190 hc         1 QYZ       0.057700
     19 H2         -23.9830   -23.2440   -11.7200 hc         1 QYZ       0.057700
     20 H3         -25.0780   -22.6160   -10.4850 hc         1 QYZ       0.057700
     21 H4         -17.5190   -28.3750    -9.8560 hn         1 QYZ       0.340500
     22 H5         -25.6480   -24.5560    -8.6030 ha         1 QYZ       0.162000
     23 H6         -24.1950   -26.6800    -7.6910 ha         1 QYZ       0.164000
     24 H7         -21.7850   -27.5960    -8.2640 ha         1 QYZ       0.158000
     25 H8         -20.8900   -24.3900   -11.2070 ha         1 QYZ       0.146000
     26 H9         -19.2070   -23.5030   -12.7470 ha         1 QYZ       0.133000
     27 H10        -17.0200   -24.6140   -13.0040 ha         1 QYZ       0.132000
     28 H11        -16.4890   -26.6570   -11.7000 ha         1 QYZ       0.138000
@<TRIPOS>BOND
     1     1     4 1   
     2     1    18 1   
     3     1    19 1   
     4     1    20 1   
     5     2    11 1   
     6     2    12 1   
     7     2    21 1   
     8     3     4 1   
     9     3     8 1   
    10     4     6 2   
    11     5    11 2   
    12     6     7 1   
    13     6    22 1   
    14     7     8 2   
    15     7    23 1   
    16     8     9 1   
    17     9    10 2   
    18     9    24 1   
    19    10    11 1   
    20    10    13 1   
    21    12    13 ar  
    22    12    17 ar  
    23    13    14 ar  
    24    14    15 ar  
    25    14    25 1   
    26    15    16 ar  
    27    15    26 1   
    28    16    17 ar  
    29    16    27 1   
    30    17    28 1   
@<TRIPOS>SUBSTRUCTURE
     1 QYZ         1 TEMP              0 ****  ****    0 ROOT
