@<TRIPOS>MOLECULE
QZ0
   50    53     1     0     0
SMALL
No Charge or Current Charge


@<TRIPOS>ATOM
      1 N1         -22.4970     7.3610    29.0820 n          1 QZ0      -0.426800
      2 N3         -17.4110     4.5430    24.2810 nb         1 QZ0      -0.653000
      3 C4         -22.0220     5.0970    28.2580 c6         1 QZ0      -0.106400
      4 C5         -20.5370     5.3030    27.8890 c          1 QZ0       0.607100
      5 C6         -19.0220     5.4700    25.8570 ca         1 QZ0      -0.071000
      6 C7         -18.5790     4.4760    24.9580 ca         1 QZ0       0.305900
      7 C8         -16.6350     5.6330    24.4750 ca         1 QZ0       0.357900
      8 C10        -16.1530     7.8140    25.4680 ca         1 QZ0      -0.087000
      9 C13        -18.6000     7.7160    26.8500 ca         1 QZ0      -0.081000
     10 C15        -22.1840     4.5850    29.7000 ca         1 QZ0      -0.046300
     11 C17        -21.9830     2.7870    31.3320 ca         1 QZ0       0.127000
     12 C20        -22.6280     5.4590    30.7220 ca         1 QZ0      -0.074300
     13 C21        -23.0120     6.9110    30.4010 c6         1 QZ0       0.152300
     14 Cl         -21.5790     1.1180    31.7150 cl         1 QZ0      -0.207000
     15 C16        -21.8640     3.2500    30.0130 ca         1 QZ0      -0.087000
     16 C18        -22.4230     3.6510    32.3470 ca         1 QZ0      -0.092000
     17 C19        -22.7460     4.9840    32.0420 ca         1 QZ0      -0.101000
     18 C2         -21.9280     8.6260    28.8210 c          1 QZ0       0.655100
     19 O          -22.0450     9.1230    27.7100 o          1 QZ0      -0.634100
     20 N          -21.2010     9.3080    29.8240 n          1 QZ0      -0.424800
     21 C1         -20.8160    10.7200    29.6070 c3         1 QZ0       0.088300
     22 C          -20.4410     8.5870    30.8730 c3         1 QZ0       0.088300
     23 C3         -22.8130     6.4010    28.0050 c6         1 QZ0       0.106000
     24 O1         -19.6630     5.4450    28.7370 o          1 QZ0      -0.563100
     25 N2         -20.2560     5.2630    26.5320 ns         1 QZ0      -0.172000
     26 C14        -18.2200     6.6270    26.0330 ca         1 QZ0      -0.003000
     27 C12        -17.7570     8.8320    26.9860 ca         1 QZ0      -0.095000
     28 C11        -16.5320     8.8790    26.3010 ca         1 QZ0      -0.106000
     29 C9         -16.9960     6.6940    25.3280 ca         1 QZ0      -0.090000
     30 H1         -22.4340     4.3870    27.5300 hc         1 QZ0       0.070700
     31 H2         -19.1760     3.5810    24.7890 h4         1 QZ0       0.019100
     32 H3         -15.6990     5.6610    23.9180 h4         1 QZ0       0.021100
     33 H4         -15.2090     7.8620    24.9290 ha         1 QZ0       0.117000
     34 H5         -19.5480     7.7210    27.3770 ha         1 QZ0       0.128000
     35 H6         -22.7020     7.5750    31.2150 h1         1 QZ0       0.056200
     36 H7         -24.1090     6.9710    30.3740 h1         1 QZ0       0.056200
     37 H8         -21.5180     2.5730    29.2360 ha         1 QZ0       0.129000
     38 H9         -22.5150     3.2870    33.3670 ha         1 QZ0       0.133000
     39 H10        -23.0920     5.6470    32.8330 ha         1 QZ0       0.118000
     40 H11        -20.4560    11.1630    30.5450 h1         1 QZ0       0.045200
     41 H12        -20.0200    10.7760    28.8540 h1         1 QZ0       0.045200
     42 H13        -21.6840    11.2950    29.2590 h1         1 QZ0       0.045200
     43 H14        -19.4280     9.0040    30.9520 h1         1 QZ0       0.045200
     44 H15        -20.9420     8.7000    31.8430 h1         1 QZ0       0.045200
     45 H16        -20.3480     7.5220    30.6260 h1         1 QZ0       0.045200
     46 H17        -22.5700     6.8110    27.0140 h1         1 QZ0       0.065200
     47 H18        -23.8920     6.1880    28.0160 h1         1 QZ0       0.065200
     48 H19        -21.0440     5.0550    25.9310 hn         1 QZ0       0.156000
     49 H20        -18.0560     9.6640    27.6200 ha         1 QZ0       0.115000
     50 H21        -15.8820     9.7450    26.4070 ha         1 QZ0       0.116000
@<TRIPOS>BOND
     1     1    13 1   
     2     1    18 1   
     3     1    23 1   
     4     2     6 ar  
     5     2     7 ar  
     6     3     4 1   
     7     3    10 1   
     8     3    23 1   
     9     3    30 1   
    10     4    24 2   
    11     4    25 1   
    12     5     6 ar  
    13     5    25 1   
    14     5    26 ar  
    15     6    31 1   
    16     7    29 ar  
    17     7    32 1   
    18     8    28 ar  
    19     8    29 ar  
    20     8    33 1   
    21     9    26 ar  
    22     9    27 ar  
    23     9    34 1   
    24    10    12 ar  
    25    10    15 ar  
    26    11    14 1   
    27    11    15 ar  
    28    11    16 ar  
    29    12    13 1   
    30    12    17 ar  
    31    13    35 1   
    32    13    36 1   
    33    15    37 1   
    34    16    17 ar  
    35    16    38 1   
    36    17    39 1   
    37    18    19 2   
    38    18    20 1   
    39    20    21 1   
    40    20    22 1   
    41    21    40 1   
    42    21    41 1   
    43    21    42 1   
    44    22    43 1   
    45    22    44 1   
    46    22    45 1   
    47    23    46 1   
    48    23    47 1   
    49    25    48 1   
    50    26    29 ar  
    51    27    28 ar  
    52    27    49 1   
    53    28    50 1   
@<TRIPOS>SUBSTRUCTURE
     1 QZ0         1 TEMP              0 ****  ****    0 ROOT
