@<TRIPOS>MOLECULE
QZ0
   50    53     1     0     0
SMALL
abcg2


@<TRIPOS>ATOM
      1 N1         -22.2190     7.3090    29.1100 n          1 QZ0      -0.426800
      2 N3         -17.3010     4.5480    24.5700 nb         1 QZ0      -0.653000
      3 C4         -22.0540     5.0590    28.2330 c6         1 QZ0      -0.106400
      4 C5         -20.5730     5.1750    27.8560 c          1 QZ0       0.607100
      5 C6         -19.0620     5.4410    25.9470 ca         1 QZ0      -0.071000
      6 C7         -18.5150     4.4520    25.1690 ca         1 QZ0       0.305900
      7 C8         -16.6050     5.6440    24.7670 ca         1 QZ0       0.357900
      8 C10        -16.2840     7.9100    25.7100 ca         1 QZ0      -0.087000
      9 C13        -18.8320     7.7570    26.8760 ca         1 QZ0      -0.081000
     10 C15        -22.2100     4.5550    29.6460 ca         1 QZ0      -0.046300
     11 C17        -22.2020     2.7300    31.2100 ca         1 QZ0       0.127000
     12 C20        -22.4650     5.4440    30.6920 ca         1 QZ0      -0.074300
     13 C21        -22.6570     6.9210    30.4440 c6         1 QZ0       0.152300
     14 CL         -22.0330     1.0150    31.5310 cl         1 QZ0      -0.207000
     15 C16        -22.0800     3.1930    29.9120 ca         1 QZ0      -0.087000
     16 C18        -22.4540     3.5990    32.2650 ca         1 QZ0      -0.092000
     17 C19        -22.5860     4.9520    31.9920 ca         1 QZ0      -0.101000
     18 C2         -21.8800     8.6090    28.7850 c          1 QZ0       0.655100
     19 O          -22.2500     9.1320    27.7280 o          1 QZ0      -0.634100
     20 N          -21.0990     9.2720    29.6890 n          1 QZ0      -0.424800
     21 C1         -20.9190    10.7050    29.5230 c3         1 QZ0       0.088300
     22 C          -20.0840     8.6080    30.4990 c3         1 QZ0       0.088300
     23 C3         -22.7260     6.4320    28.0720 c6         1 QZ0       0.106000
     24 O1         -19.6750     5.2420    28.6830 o          1 QZ0      -0.563100
     25 N2         -20.3470     5.2550    26.5170 ns         1 QZ0      -0.172000
     26 C14        -18.3440     6.6500    26.1460 ca         1 QZ0      -0.003000
     27 C12        -18.0620     8.8840    27.0160 ca         1 QZ0      -0.095000
     28 C11        -16.7750     8.9620    26.4390 ca         1 QZ0      -0.106000
     29 C9         -17.0580     6.7380    25.5430 ca         1 QZ0      -0.090000
     30 H1         -22.5300     4.3590    27.5410 hc         1 QZ0       0.070700
     31 H2         -19.0650     3.5320    25.0080 h4         1 QZ0       0.019100
     32 H3         -15.6280     5.7050    24.2960 h4         1 QZ0       0.021100
     33 H4         -15.3050     7.9600    25.2500 ha         1 QZ0       0.117000
     34 H5         -19.8160     7.7150    27.3160 ha         1 QZ0       0.128000
     35 H6         -22.1310     7.4910    31.2020 h1         1 QZ0       0.056200
     36 H7         -23.7250     7.1590    30.5560 h1         1 QZ0       0.056200
     37 H8         -21.8820     2.5010    29.1040 ha         1 QZ0       0.129000
     38 H9         -22.5440     3.2250    33.2760 ha         1 QZ0       0.133000
     39 H10        -22.7830     5.6390    32.8060 ha         1 QZ0       0.118000
     40 H11        -20.7210    11.1470    30.5000 h1         1 QZ0       0.045200
     41 H12        -20.0770    10.9340    28.8610 h1         1 QZ0       0.045200
     42 H13        -21.8200    11.1470    29.1070 h1         1 QZ0       0.045200
     43 H14        -19.1060     9.0310    30.2560 h1         1 QZ0       0.045200
     44 H15        -20.2650     8.7510    31.5670 h1         1 QZ0       0.045200
     45 H16        -20.0570     7.5460    30.2740 h1         1 QZ0       0.045200
     46 H17        -22.5100     6.8650    27.1010 h1         1 QZ0       0.065200
     47 H18        -23.8120     6.3120    28.1560 h1         1 QZ0       0.065200
     48 H19        -21.1120     5.0510    25.8910 hn         1 QZ0       0.156000
     49 H20        -18.4450     9.7280    27.5760 ha         1 QZ0       0.115000
     50 H21        -16.1850     9.8600    26.5670 ha         1 QZ0       0.116000
@<TRIPOS>BOND
     1     1    13 1   
     2     1    18 1   
     3     1    23 1   
     4     2     6 ar  
     5     2     7 ar  
     6     3     4 1   
     7     3    10 1   
     8     3    23 1   
     9     3    30 1   
    10     4    24 2   
    11     4    25 1   
    12     5     6 ar  
    13     5    25 1   
    14     5    26 ar  
    15     6    31 1   
    16     7    29 ar  
    17     7    32 1   
    18     8    28 ar  
    19     8    29 ar  
    20     8    33 1   
    21     9    26 ar  
    22     9    27 ar  
    23     9    34 1   
    24    10    12 ar  
    25    10    15 ar  
    26    11    14 1   
    27    11    15 ar  
    28    11    16 ar  
    29    12    13 1   
    30    12    17 ar  
    31    13    35 1   
    32    13    36 1   
    33    15    37 1   
    34    16    17 ar  
    35    16    38 1   
    36    17    39 1   
    37    18    19 2   
    38    18    20 1   
    39    20    21 1   
    40    20    22 1   
    41    21    40 1   
    42    21    41 1   
    43    21    42 1   
    44    22    43 1   
    45    22    44 1   
    46    22    45 1   
    47    23    46 1   
    48    23    47 1   
    49    25    48 1   
    50    26    29 ar  
    51    27    28 ar  
    52    27    49 1   
    53    28    50 1   
@<TRIPOS>SUBSTRUCTURE
     1 QZ0         1 TEMP              0 ****  ****    0 ROOT
