@<TRIPOS>MOLECULE
QZ1
   44    45     1     0     0
SMALL
abcg2


@<TRIPOS>ATOM
      1 C14         44.5690    28.0230   -18.4480 ca         1 QZ1      -0.077000
      2 C15         44.1140    26.7230   -18.5670 ca         1 QZ1      -0.218000
      3 C16         44.0900    23.7290   -17.6500 ca         1 QZ1      -0.184000
      4 C17         44.6450    22.4590   -17.5680 ca         1 QZ1      -0.083000
      5 C18         44.0550    21.3750   -18.1960 ca         1 QZ1      -0.175000
      6 F           41.5680    29.7430   -17.5330 f          1 QZ1      -0.175000
      7 C12         42.3870    28.7240   -17.8420 ca         1 QZ1       0.222000
      8 C10         41.8730    27.4360   -17.9160 ca         1 QZ1      -0.233600
      9 C11         40.4210    27.1270   -17.5510 c          1 QZ1       0.730600
     10 O1          39.9090    27.7830   -16.6370 o          1 QZ1      -0.704500
     11 O           39.8710    26.2070   -18.2070 o          1 QZ1      -0.704500
     12 C13         43.7060    29.0490   -18.0930 ca         1 QZ1      -0.229000
     13 C9          42.7700    26.4140   -18.3140 ca         1 QZ1       0.355000
     14 N           42.2700    25.1450   -18.4880 nu         1 QZ1      -1.000000
     15 C8          42.9230    23.9290   -18.3920 ca         1 QZ1       0.356000
     16 C7          42.3380    22.8250   -19.0270 ca         1 QZ1      -0.169000
     17 C6          42.8810    21.5530   -18.9300 ca         1 QZ1      -0.053300
     18 C5          42.2420    20.3890   -19.6350 c3         1 QZ1      -0.026100
     19 C4          42.9940    19.9820   -20.9030 c3         1 QZ1      -0.073400
     20 C3          42.3660    18.7780   -21.5920 c3         1 QZ1      -0.076400
     21 C2          43.1100    18.3500   -22.8500 c3         1 QZ1      -0.075400
     22 C1          42.5080    17.1180   -23.5150 c3         1 QZ1      -0.075400
     23 C           43.2560    16.7000   -24.7730 c3         1 QZ1      -0.088100
     24 H1          45.6080    28.2440   -18.6570 ha         1 QZ1       0.087000
     25 H2          44.7960    25.9500   -18.8900 ha         1 QZ1       0.104000
     26 H5          44.4970    20.3890   -18.1100 ha         1 QZ1       0.095000
     27 H7          44.0430    30.0740   -18.0180 ha         1 QZ1       0.107000
     28 H8          41.2500    25.1460   -18.5670 hn         1 QZ1       0.566000
     29 H9          41.4320    22.9740   -19.6050 ha         1 QZ1       0.119000
     30 H10         41.2090    20.6340   -19.8940 hc         1 QZ1       0.040700
     31 H11         42.1990    19.5300   -18.9590 hc         1 QZ1       0.040700
     32 H12         44.0340    19.7550   -20.6500 hc         1 QZ1       0.042200
     33 H13         43.0220    20.8310   -21.5930 hc         1 QZ1       0.042200
     34 H14         41.3240    19.0060   -21.8440 hc         1 QZ1       0.034700
     35 H15         42.3320    17.9390   -20.8890 hc         1 QZ1       0.034700
     36 H16         44.1580    18.1490   -22.6000 hc         1 QZ1       0.036700
     37 H17         43.1230    19.1790   -23.5660 hc         1 QZ1       0.036700
     38 H18         41.4600    17.3130   -23.7580 hc         1 QZ1       0.035200
     39 H19         42.5050    16.2900   -22.8000 hc         1 QZ1       0.035200
     40 H20         42.8130    15.8130   -25.2290 hc         1 QZ1       0.028033
     41 H21         43.2460    17.4950   -25.5210 hc         1 QZ1       0.028033
     42 H22         44.3000    16.4700   -24.5530 hc         1 QZ1       0.028033
     43 H3          44.5530    24.5470   -17.1160 ha         1 QZ1       0.122000
     44 H4          45.5450    22.3190   -16.9820 ha         1 QZ1       0.094000
@<TRIPOS>BOND
     1     1     2 ar  
     2     1    12 ar  
     3     1    24 1   
     4     2    13 ar  
     5     2    25 1   
     6     3     4 ar  
     7     3    15 ar  
     8     3    43 1   
     9     4     5 ar  
    10     4    44 1   
    11     5    17 ar  
    12     5    26 1   
    13     6     7 1   
    14     7     8 ar  
    15     7    12 ar  
    16     8     9 1   
    17     8    13 ar  
    18     9    10 1   
    19     9    11 1   
    20    12    27 1   
    21    13    14 1   
    22    14    15 1   
    23    14    28 1   
    24    15    16 ar  
    25    16    17 ar  
    26    16    29 1   
    27    17    18 1   
    28    18    19 1   
    29    18    30 1   
    30    18    31 1   
    31    19    20 1   
    32    19    32 1   
    33    19    33 1   
    34    20    21 1   
    35    20    34 1   
    36    20    35 1   
    37    21    22 1   
    38    21    36 1   
    39    21    37 1   
    40    22    23 1   
    41    22    38 1   
    42    22    39 1   
    43    23    40 1   
    44    23    41 1   
    45    23    42 1   
@<TRIPOS>SUBSTRUCTURE
     1 QZ1         1 TEMP              0 ****  ****    0 ROOT
