@<TRIPOS>MOLECULE
QZ1
   44    45     1     0     0
SMALL
No Charge or Current Charge


@<TRIPOS>ATOM
      1 C14         44.6040    28.0320   -18.4650 ca         1 QZ1      -0.077000
      2 C15         44.1720    26.6990   -18.5260 ca         1 QZ1      -0.218000
      3 C16         44.0920    23.6680   -17.4030 ca         1 QZ1      -0.184000
      4 C17         44.6610    22.4010   -17.1920 ca         1 QZ1      -0.083000
      5 C18         44.1160    21.2740   -17.8280 ca         1 QZ1      -0.175000
      6 F           41.4190    29.7530   -18.0070 f          1 QZ1      -0.175000
      7 C12         42.3010    28.7380   -18.1480 ca         1 QZ1       0.222000
      8 C10         41.8620    27.4020   -18.2000 ca         1 QZ1      -0.233600
      9 C11         40.4080    27.0840   -18.0550 c          1 QZ1       0.730600
     10 O1          39.7950    27.5730   -17.1180 o          1 QZ1      -0.704500
     11 O           39.9130    26.2860   -18.8400 o          1 QZ1      -0.704500
     12 C13         43.6630    29.0520   -18.2750 ca         1 QZ1      -0.229000
     13 C9          42.8100    26.3780   -18.3820 ca         1 QZ1       0.355000
     14 N           42.3890    25.0550   -18.4740 nu         1 QZ1      -1.000000
     15 C8          42.9860    23.8150   -18.2580 ca         1 QZ1       0.356000
     16 C7          42.4350    22.6810   -18.8760 ca         1 QZ1      -0.169000
     17 C6          42.9960    21.4060   -18.6700 ca         1 QZ1      -0.053300
     18 C5          42.4020    20.1850   -19.3580 c3         1 QZ1      -0.026100
     19 C4          43.0050    19.9590   -20.7610 c3         1 QZ1      -0.073400
     20 C3          42.4200    18.7240   -21.4820 c3         1 QZ1      -0.076400
     21 C2          43.0260    18.5010   -22.8850 c3         1 QZ1      -0.075400
     22 C1          42.4420    17.2660   -23.6060 c3         1 QZ1      -0.075400
     23 C           43.0460    17.0430   -25.0060 c3         1 QZ1      -0.088100
     24 H1          45.6590    28.2720   -18.5780 ha         1 QZ1       0.087000
     25 H2          44.9030    25.9180   -18.7090 ha         1 QZ1       0.104000
     26 H5          44.5620    20.2960   -17.6620 ha         1 QZ1       0.095000
     27 H7          43.9850    30.0890   -18.2380 ha         1 QZ1       0.107000
     28 H8          41.3970    25.0040   -18.7410 hn         1 QZ1       0.566000
     29 H9          41.5730    22.7900   -19.5280 ha         1 QZ1       0.119000
     30 H10         41.3140    20.2960   -19.4470 hc         1 QZ1       0.040700
     31 H11         42.5690    19.2890   -18.7460 hc         1 QZ1       0.040700
     32 H12         44.0920    19.8430   -20.6690 hc         1 QZ1       0.042200
     33 H13         42.8300    20.8520   -21.3740 hc         1 QZ1       0.042200
     34 H14         41.3330    18.8420   -21.5730 hc         1 QZ1       0.034700
     35 H15         42.5960    17.8320   -20.8680 hc         1 QZ1       0.034700
     36 H16         44.1130    18.3840   -22.7940 hc         1 QZ1       0.036700
     37 H17         42.8500    19.3930   -23.4990 hc         1 QZ1       0.036700
     38 H18         41.3550    17.3810   -23.7010 hc         1 QZ1       0.035200
     39 H19         42.6170    16.3720   -22.9960 hc         1 QZ1       0.035200
     40 H20         42.6010    16.1580   -25.4770 hc         1 QZ1       0.028033
     41 H21         42.8560    17.9080   -25.6530 hc         1 QZ1       0.028033
     42 H22         44.1290    16.8900   -24.9410 hc         1 QZ1       0.028033
     43 H3          44.5040    24.5290   -16.8870 ha         1 QZ1       0.122000
     44 H4          45.5180    22.2920   -16.5320 ha         1 QZ1       0.094000
@<TRIPOS>BOND
     1     1     2 ar  
     2     1    12 ar  
     3     1    24 1   
     4     2    13 ar  
     5     2    25 1   
     6     3     4 ar  
     7     3    15 ar  
     8     3    43 1   
     9     4     5 ar  
    10     4    44 1   
    11     5    17 ar  
    12     5    26 1   
    13     6     7 1   
    14     7     8 ar  
    15     7    12 ar  
    16     8     9 1   
    17     8    13 ar  
    18     9    10 1   
    19     9    11 1   
    20    12    27 1   
    21    13    14 1   
    22    14    15 1   
    23    14    28 1   
    24    15    16 ar  
    25    16    17 ar  
    26    16    29 1   
    27    17    18 1   
    28    18    19 1   
    29    18    30 1   
    30    18    31 1   
    31    19    20 1   
    32    19    32 1   
    33    19    33 1   
    34    20    21 1   
    35    20    34 1   
    36    20    35 1   
    37    21    22 1   
    38    21    36 1   
    39    21    37 1   
    40    22    23 1   
    41    22    38 1   
    42    22    39 1   
    43    23    40 1   
    44    23    41 1   
    45    23    42 1   
@<TRIPOS>SUBSTRUCTURE
     1 QZ1         1 TEMP              0 ****  ****    0 ROOT
