@<TRIPOS>MOLECULE
QZ2
   21    22     1     0     0
SMALL
No Charge or Current Charge


@<TRIPOS>ATOM
      1 C1          -3.7190   -10.0870    10.9320 c3         1 QZ2       0.082900
      2 N1          -2.6610   -10.4410    11.8900 na         1 QZ2       0.112800
      3 O1           4.7030   -11.4840    15.0670 o          1 QZ2      -0.711000
      4 C2          -1.2890   -10.3100    11.6840 cc         1 QZ2      -0.171000
      5 N2          -2.9950   -10.9580    13.1330 nc         1 QZ2      -0.558800
      6 O2           3.1070   -12.0740    16.3810 o          1 QZ2      -0.711000
      7 C3          -0.7620   -10.7700    12.8570 cd         1 QZ2      -0.185500
      8 N3           2.7520   -10.7090    13.0020 na         1 QZ2       0.022800
      9 C4          -1.8180   -11.1510    13.7040 cd         1 QZ2       0.249900
     10 N4           1.5820   -10.4600    12.2910 nc         1 QZ2      -0.588800
     11 C5           0.6440   -10.8380    13.1410 cd         1 QZ2       0.297500
     12 C6           1.1690   -11.3160    14.3580 cd         1 QZ2      -0.227000
     13 C7           2.5360   -11.2350    14.2750 cc         1 QZ2      -0.184600
     14 C8           3.5160   -11.6270    15.3190 c          1 QZ2       0.736600
     15 H1          -4.3700    -9.3200    11.3700 h1         1 QZ2       0.043700
     16 H2          -3.2700    -9.6960    10.0110 h1         1 QZ2       0.043700
     17 H3          -4.3140   -10.9770    10.6950 h1         1 QZ2       0.043700
     18 H4          -0.8420    -9.9250    10.7760 h4         1 QZ2       0.155000
     19 H6           3.6700   -10.5140    12.6000 hn         1 QZ2       0.373000
     20 H7          -1.7690   -11.5570    14.7060 h4         1 QZ2       0.038100
     21 H8           0.5990   -11.6800    15.2060 ha         1 QZ2       0.138000
@<TRIPOS>BOND
     1     1     2 1   
     2     1    15 1   
     3     1    16 1   
     4     1    17 1   
     5     2     4 1   
     6     2     5 1   
     7     3    14 1   
     8     4     7 2   
     9     4    18 1   
    10     5     9 2   
    11     6    14 1   
    12     7     9 1   
    13     7    11 1   
    14     8    10 1   
    15     8    13 1   
    16     8    19 1   
    17     9    20 1   
    18    10    11 2   
    19    11    12 1   
    20    12    13 2   
    21    12    21 1   
    22    13    14 1   
@<TRIPOS>SUBSTRUCTURE
     1 QZ2         1 TEMP              0 ****  ****    0 ROOT
