@<TRIPOS>MOLECULE
QZ2
   21    22     1     0     0
SMALL
abcg2


@<TRIPOS>ATOM
      1 C1          -3.6750   -10.0520    10.8740 c3         1 QZ2       0.082900
      2 N1          -2.6810   -10.4320    11.8480 na         1 QZ2       0.112800
      3 O1           4.8020   -11.3630    14.7500 o          1 QZ2      -0.711000
      4 C2          -1.3460   -10.3360    11.7290 cc         1 QZ2      -0.171000
      5 N2          -3.0520   -10.9290    13.0220 nc         1 QZ2      -0.558800
      6 O2           3.3780   -12.0180    16.3550 o          1 QZ2      -0.711000
      7 C3          -0.8020   -10.8040    12.9090 cd         1 QZ2      -0.185500
      8 N3           2.6890   -10.7460    13.0940 na         1 QZ2       0.022800
      9 C4          -1.9280   -11.1590    13.6750 cd         1 QZ2       0.249900
     10 N4           1.5590   -10.5240    12.4390 nc         1 QZ2      -0.588800
     11 C5           0.5990   -10.9020    13.2760 cd         1 QZ2       0.297500
     12 C6           1.1480   -11.3710    14.4850 cd         1 QZ2      -0.227000
     13 C7           2.5130   -11.2540    14.3270 cc         1 QZ2      -0.184600
     14 C8           3.6740   -11.5760    15.2320 c          1 QZ2       0.736600
     15 H1          -4.3090    -9.2600    11.2680 h1         1 QZ2       0.043700
     16 H2          -3.1740    -9.6910     9.9810 h1         1 QZ2       0.043700
     17 H3          -4.2940   -10.9080    10.6110 h1         1 QZ2       0.043700
     18 H4          -0.8810    -9.9500    10.8360 h4         1 QZ2       0.155000
     19 H6           3.5780   -10.5370    12.6680 hn         1 QZ2       0.373000
     20 H7          -1.9520   -11.5730    14.6720 h4         1 QZ2       0.038100
     21 H8           0.6220   -11.7440    15.3480 ha         1 QZ2       0.138000
@<TRIPOS>BOND
     1     1     2 1   
     2     1    15 1   
     3     1    16 1   
     4     1    17 1   
     5     2     4 1   
     6     2     5 1   
     7     3    14 1   
     8     4     7 2   
     9     4    18 1   
    10     5     9 2   
    11     6    14 1   
    12     7     9 1   
    13     7    11 1   
    14     8    10 1   
    15     8    13 1   
    16     8    19 1   
    17     9    20 1   
    18    10    11 2   
    19    11    12 1   
    20    12    13 2   
    21    12    21 1   
    22    13    14 1   
@<TRIPOS>SUBSTRUCTURE
     1 QZ2         1 TEMP              0 ****  ****    0 ROOT
