@<TRIPOS>MOLECULE
QZ3
   45    47     1     0     0
SMALL
No Charge or Current Charge


@<TRIPOS>ATOM
      1 C15          0.3390    -3.0760    -0.2510 cg         1 QZ3       0.297700
      2 C18         -0.5710     0.4690     1.3280 ca         1 QZ3      -0.073500
      3 C22         -1.2060    -0.4700    -0.8160 ca         1 QZ3      -0.073500
      4 C19         -1.8840     0.9340     1.5100 ca         1 QZ3      -0.113000
      5 C21         -2.5190    -0.0010    -0.6310 ca         1 QZ3      -0.113000
      6 C4           4.7460     0.4080     0.2670 ca         1 QZ3      -0.236000
      7 C17         -0.2140    -0.2290     0.1570 ca         1 QZ3      -0.083800
      8 C6           2.3330     0.1950     0.0680 ca         1 QZ3      -0.197800
      9 C5           3.6090    -0.3880     0.1370 ca         1 QZ3       0.145600
     10 C20         -2.8710     0.7020     0.5380 ca         1 QZ3       0.249000
     11 C3           4.5980     1.7950     0.2950 ca         1 QZ3       0.423300
     12 C7           2.2930     1.6230     0.0140 ca         1 QZ3       0.448300
     13 C11          1.3800    -2.1070    -0.1760 cc         1 QZ3      -0.106900
     14 C10          1.1660    -0.7390    -0.0020 cd         1 QZ3       0.142600
     15 C12          2.7440    -2.6850    -0.1710 c          1 QZ3       0.580200
     16 C1           6.5560     2.9080    -0.9030 c3         1 QZ3      -0.083100
     17 C27         -5.7080    -1.0380     0.4640 c3         1 QZ3      -0.382100
     18 C2           5.8040     2.7110     0.4300 c3         1 QZ3      -0.131700
     19 N16         -0.5340    -3.8490    -0.3120 n1         1 QZ3      -0.434000
     20 N8           3.4010     2.3880     0.1440 nb         1 QZ3      -0.719000
     21 N14          3.7400    -1.7720     0.0270 ns         1 QZ3      -0.369100
     22 N23         -4.1590     1.1890     0.7710 nu         1 QZ3      -0.876100
     23 O13          3.0110    -3.8720    -0.3030 o          1 QZ3      -0.517000
     24 O25         -5.5340     0.9300    -1.3140 o          1 QZ3      -0.521500
     25 O26         -6.6240     1.3960     0.9360 o          1 QZ3      -0.521500
     26 S24         -5.6150     0.7080     0.1310 s6         1 QZ3       1.190100
     27 H18          0.1720     0.6450     2.1040 ha         1 QZ3       0.130000
     28 H19         -2.1350     1.4740     2.4190 ha         1 QZ3       0.135500
     29 H22         -0.9570    -1.0020    -1.7320 ha         1 QZ3       0.130000
     30 H21         -3.2490    -0.1880    -1.4110 ha         1 QZ3       0.135500
     31 H4           5.7350    -0.0350     0.3360 ha         1 QZ3       0.133000
     32 H14          4.6790    -2.1480     0.0530 hn         1 QZ3       0.336500
     33 H23         -4.3680     1.5810     1.6800 hn         1 QZ3       0.489000
     34 H21C         5.4980     3.6920     0.8140 hc         1 QZ3       0.056200
     35 H22C         6.4980     2.2970     1.1710 hc         1 QZ3       0.056200
     36 H91C         0.5030     2.7230     0.5840 hc         1 QZ3       0.062700
     37 H92C         1.3540     3.4140    -0.7880 hc         1 QZ3       0.062700
     38 H93C         0.4070     1.9670    -1.0320 hc         1 QZ3       0.062700
     39 H11C         7.4170     3.5730    -0.7640 hc         1 QZ3       0.042033
     40 H12C         6.9220     1.9490    -1.2890 hc         1 QZ3       0.042033
     41 H13C         5.8960     3.3540    -1.6570 hc         1 QZ3       0.042033
     42 H271        -5.6360    -1.1720     1.5480 h1         1 QZ3       0.105700
     43 H272        -6.6710    -1.3920     0.0840 h1         1 QZ3       0.105700
     44 H273        -4.8750    -1.5240    -0.0530 h1         1 QZ3       0.105700
     45 C9           1.0680     2.4660    -0.3170 c3         1 QZ3      -0.157400
@<TRIPOS>BOND
     1     1    13 1   
     2     1    19 3   
     3     2     4 ar  
     4     2     7 ar  
     5     2    27 1   
     6     3     5 ar  
     7     3     7 ar  
     8     3    29 1   
     9     4    10 ar  
    10     4    28 1   
    11     5    10 ar  
    12     5    30 1   
    13     6     9 ar  
    14     6    11 ar  
    15     6    31 1   
    16     7    14 1   
    17     8     9 ar  
    18     8    12 ar  
    19     8    14 1   
    20     9    21 1   
    21    10    22 1   
    22    11    18 1   
    23    11    20 ar  
    24    12    20 ar  
    25    12    45 1   
    26    13    14 2   
    27    13    15 1   
    28    15    21 1   
    29    15    23 2   
    30    16    18 1   
    31    16    39 1   
    32    16    40 1   
    33    16    41 1   
    34    17    26 1   
    35    17    42 1   
    36    17    43 1   
    37    17    44 1   
    38    18    34 1   
    39    18    35 1   
    40    21    32 1   
    41    22    26 1   
    42    22    33 1   
    43    24    26 2   
    44    25    26 2   
    45    36    45 1   
    46    37    45 1   
    47    38    45 1   
@<TRIPOS>SUBSTRUCTURE
     1 QZ3         1 TEMP              0 ****  ****    0 ROOT
