@<TRIPOS>MOLECULE
QZ3
   45    47     1     0     0
SMALL
abcg2


@<TRIPOS>ATOM
      1 C15          0.1020    -2.8570    -0.0400 cg         1 QZ3       0.297700
      2 C18         -0.8160     0.2340     1.2740 ca         1 QZ3      -0.073500
      3 C22         -0.9470    -0.0010    -1.1150 ca         1 QZ3      -0.073500
      4 C19         -2.1210     0.6960     1.2970 ca         1 QZ3      -0.113000
      5 C21         -2.2440     0.4830    -1.0980 ca         1 QZ3      -0.113000
      6 C4           4.7720     0.1600     0.1430 ca         1 QZ3      -0.236000
      7 C17         -0.2230    -0.1140     0.0670 ca         1 QZ3      -0.083800
      8 C6           2.3390     0.1360     0.0860 ca         1 QZ3      -0.197800
      9 C5           3.5730    -0.5470     0.0850 ca         1 QZ3       0.145600
     10 C20         -2.8370     0.8290     0.1120 ca         1 QZ3       0.249000
     11 C3           4.7180     1.5310     0.1990 ca         1 QZ3       0.423300
     12 C7           2.4030     1.5600     0.1220 ca         1 QZ3       0.448300
     13 C11          1.2570    -2.0290    -0.0160 cc         1 QZ3      -0.106900
     14 C10          1.1510    -0.6670     0.0420 cd         1 QZ3       0.142600
     15 C12          2.5290    -2.7360    -0.0320 c          1 QZ3       0.580200
     16 C1           6.0900     3.3070    -0.9300 c3         1 QZ3      -0.083100
     17 C27         -5.3930    -0.9030     1.1450 c3         1 QZ3      -0.382100
     18 C2           5.9600     2.3670     0.2660 c3         1 QZ3      -0.131700
     19 N16         -0.8190    -3.5500    -0.0550 n1         1 QZ3      -0.434000
     20 N8           3.5530     2.1970     0.1810 nb         1 QZ3      -0.719000
     21 N14          3.6120    -1.9070     0.0270 ns         1 QZ3      -0.369100
     22 N23         -4.1580     1.3370     0.1330 nu         1 QZ3      -0.876100
     23 O13          2.6360    -3.9470    -0.0850 o          1 QZ3      -0.517000
     24 O25         -5.1880    -0.3650    -1.4110 o          1 QZ3      -0.521500
     25 O26         -6.6320     1.1250     0.0070 o          1 QZ3      -0.521500
     26 S24         -5.4400     0.3110    -0.1510 s6         1 QZ3       1.190100
     27 H18         -0.2640     0.1380     2.2000 ha         1 QZ3       0.130000
     28 H19         -2.5820     0.9550     2.2420 ha         1 QZ3       0.135500
     29 H22         -0.4910    -0.2690    -2.0590 ha         1 QZ3       0.130000
     30 H21         -2.7850     0.6060    -2.0250 ha         1 QZ3       0.135500
     31 H4           5.7190    -0.3650     0.1450 ha         1 QZ3       0.133000
     32 H14          4.5220    -2.3530     0.0270 hn         1 QZ3       0.336500
     33 H23         -4.3530     1.9660     0.9050 hn         1 QZ3       0.489000
     34 H21C         5.9310     2.9550     1.1880 hc         1 QZ3       0.056200
     35 H22C         6.8350     1.7180     0.3320 hc         1 QZ3       0.056200
     36 H91C         0.6460     2.4220     1.0310 hc         1 QZ3       0.062700
     37 H92C         1.5600     3.4850    -0.0330 hc         1 QZ3       0.062700
     38 H93C         0.5110     2.2340    -0.7070 hc         1 QZ3       0.062700
     39 H11C         6.9960     3.9050    -0.8470 hc         1 QZ3       0.042033
     40 H12C         6.1420     2.7490    -1.8660 hc         1 QZ3       0.042033
     41 H13C         5.2400     3.9850    -0.9890 hc         1 QZ3       0.042033
     42 H271        -5.4940    -0.4060     2.1070 h1         1 QZ3       0.105700
     43 H272        -6.2260    -1.5860     0.9890 h1         1 QZ3       0.105700
     44 H273        -4.4540    -1.4520     1.0990 h1         1 QZ3       0.105700
     45 C9           1.2070     2.4650     0.0970 c3         1 QZ3      -0.157400
@<TRIPOS>BOND
     1     1    13 1   
     2     1    19 3   
     3     2     4 ar  
     4     2     7 ar  
     5     2    27 1   
     6     3     5 ar  
     7     3     7 ar  
     8     3    29 1   
     9     4    10 ar  
    10     4    28 1   
    11     5    10 ar  
    12     5    30 1   
    13     6     9 ar  
    14     6    11 ar  
    15     6    31 1   
    16     7    14 1   
    17     8     9 ar  
    18     8    12 ar  
    19     8    14 1   
    20     9    21 1   
    21    10    22 1   
    22    11    18 1   
    23    11    20 ar  
    24    12    20 ar  
    25    12    45 1   
    26    13    14 2   
    27    13    15 1   
    28    15    21 1   
    29    15    23 2   
    30    16    18 1   
    31    16    39 1   
    32    16    40 1   
    33    16    41 1   
    34    17    26 1   
    35    17    42 1   
    36    17    43 1   
    37    17    44 1   
    38    18    34 1   
    39    18    35 1   
    40    21    32 1   
    41    22    26 1   
    42    22    33 1   
    43    24    26 2   
    44    25    26 2   
    45    36    45 1   
    46    37    45 1   
    47    38    45 1   
@<TRIPOS>SUBSTRUCTURE
     1 QZ3         1 TEMP              0 ****  ****    0 ROOT
