@<TRIPOS>MOLECULE
QZ4
   70    72     1     0     0
SMALL
abcg2


@<TRIPOS>ATOM
      1 C10         64.7220    -9.9800    -9.6900 c3         1 QZ4       0.046700
      2 C11         65.9960    -9.3210   -10.2190 c3         1 QZ4      -0.084400
      3 C12         67.1950    -9.3610    -9.2690 c6         1 QZ4      -0.058700
      4 C13         68.3710    -8.6210    -9.9110 c6         1 QZ4      -0.072900
      5 C14         69.5970    -8.5840    -9.0050 c6         1 QZ4      -0.072900
      6 C15         69.2580    -7.9800    -7.6470 c6         1 QZ4      -0.075400
      7 C16         68.1040    -8.7290    -6.9910 c6         1 QZ4      -0.072900
      8 C17         66.8750    -8.7730    -7.8950 c6         1 QZ4      -0.072900
      9 C18         63.5960    -9.7890   -10.7100 c          1 QZ4       0.583100
     10 C02         62.7670   -16.8650    -7.0330 c6         1 QZ4       0.178000
     11 C04         62.8010   -16.8330    -8.5430 c6         1 QZ4      -0.124400
     12 C05         63.7400   -15.7400    -9.0490 c6         1 QZ4      -0.091400
     13 C06         63.3550   -14.3920    -8.4580 c6         1 QZ4       0.194300
     14 C20         61.6200    -8.4030   -11.2440 c3         1 QZ4       0.103700
     15 C21         60.3610    -8.4320   -10.3760 c3         1 QZ4      -0.070400
     16 C22         60.1810    -9.7550    -9.6500 c5         1 QZ4      -0.157700
     17 C23         58.9180    -9.8130    -8.8050 c          1 QZ4       0.564000
     18 C25         59.2610   -11.9670    -9.6680 c5         1 QZ4       0.099000
     19 C26         60.0610   -10.9950   -10.5340 c5         1 QZ4      -0.088400
     20 C28         61.8530    -7.0450   -11.8980 c3         1 QZ4       0.151600
     21 C32         63.3740   -14.4360    -6.9350 c6         1 QZ4      -0.091400
     22 C33         62.4350   -15.5250    -6.4210 c6         1 QZ4      -0.124400
     23 F03         61.8720   -17.8100    -6.6050 f          1 QZ4      -0.121500
     24 N09         64.9500   -11.3800    -9.4480 ns         1 QZ4      -0.472900
     25 N19         62.7870    -8.7480   -10.4590 ns         1 QZ4      -0.498900
     26 N24         58.4440   -11.0680    -8.8790 ns         1 QZ4      -0.514900
     27 O07         64.2990   -13.4410    -8.9600 os         1 QZ4      -0.454100
     28 O27         58.4330    -8.8970    -8.1600 o          1 QZ4      -0.563000
     29 O30         63.4970   -10.5200   -11.6820 o          1 QZ4      -0.602100
     30 O31         62.9060   -11.7160    -8.5330 o          1 QZ4      -0.554000
     31 H1          64.4360    -9.4990    -8.7500 h1         1 QZ4       0.075700
     32 H2          66.2690    -9.7900   -11.1710 hc         1 QZ4       0.057700
     33 H3          65.7610    -8.2770   -10.4470 hc         1 QZ4       0.057700
     34 H4          67.5020   -10.4050    -9.1240 hc         1 QZ4       0.051700
     35 H5          68.6210    -9.0910   -10.8670 hc         1 QZ4       0.039200
     36 H6          68.0620    -7.5950   -10.1420 hc         1 QZ4       0.039200
     37 H7          69.9790    -9.6010    -8.8650 hc         1 QZ4       0.040950
     38 H8          70.3980    -8.0160    -9.4850 hc         1 QZ4       0.040950
     39 H9          70.1350    -7.9890    -6.9960 hc         1 QZ4       0.039700
     40 H10         68.9780    -6.9290    -7.7780 hc         1 QZ4       0.039700
     41 H11         67.8440    -8.2660    -6.0360 hc         1 QZ4       0.040950
     42 H12         68.4200    -9.7520    -6.7630 hc         1 QZ4       0.040950
     43 H13         66.4770    -7.7590    -8.0210 hc         1 QZ4       0.039200
     44 H14         66.0930    -9.3570    -7.4030 hc         1 QZ4       0.039200
     45 H15         61.7850   -16.6440    -8.9020 hc         1 QZ4       0.070700
     46 H16         63.1030   -17.8070    -8.9330 hc         1 QZ4       0.070700
     47 H18         64.7730   -15.9770    -8.7800 hc         1 QZ4       0.067700
     48 H19         62.3500   -14.1220    -8.8020 h1         1 QZ4       0.062700
     49 H20         61.5350    -9.1570   -12.0300 h1         1 QZ4       0.093700
     50 H21         60.4030    -7.6170    -9.6470 hc         1 QZ4       0.066200
     51 H22         59.4950    -8.2400   -11.0130 hc         1 QZ4       0.066200
     52 H23         61.0120    -9.9060    -8.9500 hc         1 QZ4       0.088700
     53 H24         58.6460   -12.6510   -10.2510 h1         1 QZ4       0.044200
     54 H25         59.9250   -12.5610    -9.0310 h1         1 QZ4       0.044200
     55 H26         61.0220   -11.4070   -10.8320 hc         1 QZ4       0.063700
     56 H27         59.4990   -10.7510   -11.4400 hc         1 QZ4       0.063700
     57 H28         62.7810    -7.0960   -12.4820 h1         1 QZ4       0.022200
     58 H29         62.0080    -6.2940   -11.1110 h1         1 QZ4       0.022200
     59 H30         64.3950   -14.6220    -6.5900 hc         1 QZ4       0.067700
     60 H31         63.0640   -13.4770    -6.5200 hc         1 QZ4       0.067700
     61 H32         62.4810   -15.5860    -5.3320 hc         1 QZ4       0.070700
     62 H33         61.4030   -15.2800    -6.6860 hc         1 QZ4       0.070700
     63 H34         65.7100   -11.8320    -9.9320 hn         1 QZ4       0.335500
     64 H35         62.9220    -8.2420    -9.5960 hn         1 QZ4       0.313500
     65 H36         57.6810   -11.3890    -8.3030 hn         1 QZ4       0.324500
     66 C08         63.9590   -12.1490    -8.9510 c          1 QZ4       0.642100
     67 O29         60.7450    -6.7330   -12.7060 oh         1 QZ4      -0.656000
     68 H17         63.6900   -15.7020   -10.1380 hc         1 QZ4       0.067700
     69 F01         63.9870   -17.2910    -6.5620 f          1 QZ4      -0.121500
     70 H37         60.8750    -5.8520   -13.0670 ho         1 QZ4       0.448000
@<TRIPOS>BOND
     1     1     2 1   
     2     1     9 1   
     3     1    24 1   
     4     1    31 1   
     5     2     3 1   
     6     2    32 1   
     7     2    33 1   
     8     3     4 1   
     9     3     8 1   
    10     3    34 1   
    11     4     5 1   
    12     4    35 1   
    13     4    36 1   
    14     5     6 1   
    15     5    37 1   
    16     5    38 1   
    17     6     7 1   
    18     6    39 1   
    19     6    40 1   
    20     7     8 1   
    21     7    41 1   
    22     7    42 1   
    23     8    43 1   
    24     8    44 1   
    25     9    25 1   
    26     9    29 2   
    27    10    11 1   
    28    10    22 1   
    29    10    23 1   
    30    10    69 1   
    31    11    12 1   
    32    11    45 1   
    33    11    46 1   
    34    12    13 1   
    35    12    47 1   
    36    12    68 1   
    37    13    21 1   
    38    13    27 1   
    39    13    48 1   
    40    14    15 1   
    41    14    20 1   
    42    14    25 1   
    43    14    49 1   
    44    15    16 1   
    45    15    50 1   
    46    15    51 1   
    47    16    17 1   
    48    16    19 1   
    49    16    52 1   
    50    17    26 1   
    51    17    28 2   
    52    18    19 1   
    53    18    26 1   
    54    18    53 1   
    55    18    54 1   
    56    19    55 1   
    57    19    56 1   
    58    20    57 1   
    59    20    58 1   
    60    20    67 1   
    61    21    22 1   
    62    21    59 1   
    63    21    60 1   
    64    22    61 1   
    65    22    62 1   
    66    24    63 1   
    67    24    66 1   
    68    25    64 1   
    69    26    65 1   
    70    27    66 1   
    71    30    66 2   
    72    67    70 1   
@<TRIPOS>SUBSTRUCTURE
     1 QZ4         1 TEMP              0 ****  ****    0 ROOT
