@<TRIPOS>MOLECULE
QZ4
   70    72     1     0     0
SMALL
No Charge or Current Charge


@<TRIPOS>ATOM
      1 C10         63.7870   -10.5280    -9.8800 c3         1 QZ4       0.046700
      2 C11         65.1300    -9.7400    -9.8940 c3         1 QZ4      -0.084400
      3 C12         66.0740    -9.9440    -8.6660 c6         1 QZ4      -0.058700
      4 C13         67.4570    -9.2800    -8.9160 c6         1 QZ4      -0.072900
      5 C14         68.4150    -9.4910    -7.7170 c6         1 QZ4      -0.072900
      6 C15         67.7910    -8.9640    -6.4020 c6         1 QZ4      -0.075400
      7 C16         66.4100    -9.6120    -6.1430 c6         1 QZ4      -0.072900
      8 C17         65.4560    -9.4000    -7.3450 c6         1 QZ4      -0.072900
      9 C18         62.8800   -10.1100   -11.0740 c          1 QZ4       0.583100
     10 C02         66.1100   -17.4770    -7.2490 c6         1 QZ4       0.178000
     11 C04         64.8020   -17.6740    -8.0540 c6         1 QZ4      -0.124400
     12 C05         64.5530   -16.4890    -9.0260 c6         1 QZ4      -0.091400
     13 C06         64.5670   -15.1270    -8.2840 c6         1 QZ4       0.194300
     14 C20         61.4370    -8.2430   -11.9690 c3         1 QZ4       0.103700
     15 C21         60.4310    -7.2800   -11.2850 c3         1 QZ4      -0.070400
     16 C22         59.5790    -7.9140   -10.1460 c5         1 QZ4      -0.157700
     17 C23         58.5410    -6.9570    -9.5440 c          1 QZ4       0.564000
     18 C25         57.6520    -9.1650    -9.4360 c5         1 QZ4       0.099000
     19 C26         58.7120    -9.1330   -10.5700 c5         1 QZ4      -0.088400
     20 C28         62.2650    -7.5670   -13.0970 c3         1 QZ4       0.151600
     21 C32         65.9070   -14.9370    -7.5150 c6         1 QZ4      -0.091400
     22 C33         66.1710   -16.1080    -6.5300 c6         1 QZ4      -0.124400
     23 F03         66.2280   -18.5060    -6.2990 f          1 QZ4      -0.121500
     24 N09         64.0310   -11.9860    -9.9140 ns         1 QZ4      -0.472900
     25 N19         62.3240    -8.8520   -10.9690 ns         1 QZ4      -0.498900
     26 N24         57.4690    -7.7340    -9.2010 ns         1 QZ4      -0.514900
     27 O07         64.3700   -14.0690    -9.2390 os         1 QZ4      -0.454100
     28 O27         58.5080    -5.7370    -9.5510 o          1 QZ4      -0.563000
     29 O30         62.6610   -10.8340   -12.0380 o          1 QZ4      -0.602100
     30 O31         63.8080   -12.4760    -7.6800 o          1 QZ4      -0.554000
     31 H1          63.2290   -10.2810    -8.9680 h1         1 QZ4       0.075700
     32 H2          65.6650   -10.0140   -10.8120 hc         1 QZ4       0.057700
     33 H3          64.9100    -8.6700    -9.9920 hc         1 QZ4       0.057700
     34 H4          66.2370   -11.0260    -8.5610 hc         1 QZ4       0.051700
     35 H5          67.9160    -9.6970    -9.8230 hc         1 QZ4       0.039200
     36 H6          67.3290    -8.2040    -9.0990 hc         1 QZ4       0.039200
     37 H7          68.6490   -10.5590    -7.6130 hc         1 QZ4       0.040950
     38 H8          69.3690    -8.9800    -7.9070 hc         1 QZ4       0.040950
     39 H9          68.4640    -9.1710    -5.5590 hc         1 QZ4       0.039700
     40 H10         67.6830    -7.8710    -6.4550 hc         1 QZ4       0.039700
     41 H11         65.9630    -9.1880    -5.2340 hc         1 QZ4       0.040950
     42 H12         66.5340   -10.6880    -5.9570 hc         1 QZ4       0.040950
     43 H13         65.2320    -8.3290    -7.4510 hc         1 QZ4       0.039200
     44 H14         64.5000    -9.8940    -7.1310 hc         1 QZ4       0.039200
     45 H15         63.9560   -17.7630    -7.3590 hc         1 QZ4       0.070700
     46 H16         64.8450   -18.6180    -8.6140 hc         1 QZ4       0.070700
     47 H18         65.3180   -16.4860    -9.8140 hc         1 QZ4       0.067700
     48 H19         63.7320   -15.1160    -7.5670 h1         1 QZ4       0.062700
     49 H20         60.8560    -9.0490   -12.4380 h1         1 QZ4       0.093700
     50 H21         60.9850    -6.4200   -10.8880 hc         1 QZ4       0.066200
     51 H22         59.7560    -6.8760   -12.0510 hc         1 QZ4       0.066200
     52 H23         60.2310    -8.2280    -9.3230 hc         1 QZ4       0.088700
     53 H24         56.7280    -9.6680    -9.7500 h1         1 QZ4       0.044200
     54 H25         58.0370    -9.6700    -8.5390 h1         1 QZ4       0.044200
     55 H26         59.2820   -10.0660   -10.6420 hc         1 QZ4       0.063700
     56 H27         58.2330    -8.9620   -11.5420 hc         1 QZ4       0.063700
     57 H28         62.9840    -8.2950   -13.4960 h1         1 QZ4       0.022200
     58 H29         62.8400    -6.7340   -12.6710 h1         1 QZ4       0.022200
     59 H30         66.7350   -14.8610    -8.2330 hc         1 QZ4       0.067700
     60 H31         65.8950   -13.9920    -6.9560 hc         1 QZ4       0.067700
     61 H32         67.1510   -15.9810    -6.0480 hc         1 QZ4       0.070700
     62 H33         65.4240   -16.0850    -5.7250 hc         1 QZ4       0.070700
     63 H34         64.2070   -12.4300   -10.8070 hn         1 QZ4       0.335500
     64 H35         62.5570    -8.3140   -10.1420 hn         1 QZ4       0.313500
     65 H36         56.6270    -7.2870    -8.8560 hn         1 QZ4       0.324500
     66 C08         64.0480   -12.8120    -8.8280 c          1 QZ4       0.642100
     67 O29         61.4160    -7.0940   -14.1540 oh         1 QZ4      -0.656000
     68 H17         63.5860   -16.6220    -9.5310 hc         1 QZ4       0.067700
     69 F01         67.2150   -17.6060    -8.1100 f          1 QZ4      -0.121500
     70 H37         62.0010    -6.6880   -14.8330 ho         1 QZ4       0.448000
@<TRIPOS>BOND
     1     1     2 1   
     2     1     9 1   
     3     1    24 1   
     4     1    31 1   
     5     2     3 1   
     6     2    32 1   
     7     2    33 1   
     8     3     4 1   
     9     3     8 1   
    10     3    34 1   
    11     4     5 1   
    12     4    35 1   
    13     4    36 1   
    14     5     6 1   
    15     5    37 1   
    16     5    38 1   
    17     6     7 1   
    18     6    39 1   
    19     6    40 1   
    20     7     8 1   
    21     7    41 1   
    22     7    42 1   
    23     8    43 1   
    24     8    44 1   
    25     9    25 1   
    26     9    29 2   
    27    10    11 1   
    28    10    22 1   
    29    10    23 1   
    30    10    69 1   
    31    11    12 1   
    32    11    45 1   
    33    11    46 1   
    34    12    13 1   
    35    12    47 1   
    36    12    68 1   
    37    13    21 1   
    38    13    27 1   
    39    13    48 1   
    40    14    15 1   
    41    14    20 1   
    42    14    25 1   
    43    14    49 1   
    44    15    16 1   
    45    15    50 1   
    46    15    51 1   
    47    16    17 1   
    48    16    19 1   
    49    16    52 1   
    50    17    26 1   
    51    17    28 2   
    52    18    19 1   
    53    18    26 1   
    54    18    53 1   
    55    18    54 1   
    56    19    55 1   
    57    19    56 1   
    58    20    57 1   
    59    20    58 1   
    60    20    67 1   
    61    21    22 1   
    62    21    59 1   
    63    21    60 1   
    64    22    61 1   
    65    22    62 1   
    66    24    63 1   
    67    24    66 1   
    68    25    64 1   
    69    26    65 1   
    70    27    66 1   
    71    30    66 2   
    72    67    70 1   
@<TRIPOS>SUBSTRUCTURE
     1 QZ4         1 TEMP              0 ****  ****    0 ROOT
