@<TRIPOS>MOLECULE
QZ6
   35    38     1     0     0
SMALL
abcg2


@<TRIPOS>ATOM
      1 C18        -44.1050   -29.4870     5.9890 ca         1 QZ6       0.192900
      2 C13        -43.7440   -33.2370     0.3040 cy         1 QZ6      -0.288400
      3 C12        -43.5100   -31.7270     0.0330 cy         1 QZ6      -0.047400
      4 C11        -44.6140   -31.1680     0.9670 cy         1 QZ6      -0.287700
      5 C10        -44.2910   -29.9770     1.8410 c3         1 QZ6       0.268800
      6 C20        -47.9160   -29.1050     4.5870 cp         1 QZ6      -0.063000
      7 C02        -50.6260   -28.7000     4.8980 ca         1 QZ6       0.186000
      8 C03        -49.8560   -28.6670     6.0440 ca         1 QZ6      -0.168000
      9 C04        -48.4940   -28.8740     5.8680 ca         1 QZ6       0.009800
     10 C06        -46.2910   -29.1410     6.2040 ca         1 QZ6       0.206500
     11 C07        -46.5000   -29.2690     4.8190 cp         1 QZ6      -0.252000
     12 C08        -45.3470   -29.5180     4.0480 ca         1 QZ6       0.437900
     13 C21        -48.7490   -29.1320     3.4670 ca         1 QZ6      -0.048000
     14 C22        -50.1140   -28.9270     3.6240 ca         1 QZ6      -0.166000
     15 F01        -51.9650   -28.4990     5.0210 f          1 QZ6      -0.182000
     16 N05        -47.4910   -28.9010     6.8180 na         1 QZ6      -0.331300
     17 N09        -45.4070   -29.6530     2.7060 nu         1 QZ6      -0.945100
     18 N17        -44.1520   -29.6230     4.6640 nb         1 QZ6      -0.276000
     19 N19        -45.1110   -29.2430     6.8260 nb         1 QZ6      -0.235000
     20 S14        -44.6830   -32.7960     1.7860 s6         1 QZ6       1.056000
     21 H181       -43.1220   -29.5840     6.4380 h5         1 QZ6       0.052100
     22 H131       -44.4060   -33.7150    -0.4150 h1         1 QZ6       0.111700
     23 H132       -42.8720   -33.8510     0.5090 h1         1 QZ6       0.111700
     24 H121       -43.6490   -31.4490    -1.0080 hc         1 QZ6       0.076200
     25 H122       -42.5230   -31.4150     0.3670 hc         1 QZ6       0.076200
     26 H111       -45.5610   -31.0410     0.4390 h1         1 QZ6       0.098700
     27 H102       -44.0430   -29.1310     1.1920 h1         1 QZ6       0.079200
     28 H101       -43.4260   -30.1860     2.4640 h1         1 QZ6       0.079200
     29 H031       -50.3000   -28.4900     7.0150 ha         1 QZ6       0.139000
     30 H211       -48.3610   -29.3140     2.4740 ha         1 QZ6       0.109000
     31 H221       -50.7850   -28.9420     2.7760 ha         1 QZ6       0.134000
     32 H051       -47.6150   -28.7740     7.8100 hn         1 QZ6       0.370000
     33 H091       -46.2980   -29.4980     2.2640 hn         1 QZ6       0.495000
     34 O15        -43.8350   -32.8230     2.9660 o          1 QZ6      -0.501000
     35 O16        -46.0040   -33.3870     1.8900 o          1 QZ6      -0.501000
@<TRIPOS>BOND
     1     1    18 ar  
     2     1    19 ar  
     3     1    21 1   
     4     2     3 1   
     5     2    20 1   
     6     2    22 1   
     7     2    23 1   
     8     3     4 1   
     9     3    24 1   
    10     3    25 1   
    11     4     5 1   
    12     4    20 1   
    13     4    26 1   
    14     5    17 1   
    15     5    27 1   
    16     5    28 1   
    17     6     9 ar  
    18     6    11 1   
    19     6    13 ar  
    20     7     8 ar  
    21     7    14 ar  
    22     7    15 1   
    23     8     9 ar  
    24     8    29 1   
    25     9    16 1   
    26    10    11 ar  
    27    10    16 1   
    28    10    19 ar  
    29    11    12 ar  
    30    12    17 1   
    31    12    18 ar  
    32    13    14 ar  
    33    13    30 1   
    34    14    31 1   
    35    16    32 1   
    36    17    33 1   
    37    20    34 2   
    38    20    35 2   
@<TRIPOS>SUBSTRUCTURE
     1 QZ6         1 TEMP              0 ****  ****    0 ROOT
