@<TRIPOS>MOLECULE
QZ6
   35    38     1     0     0
SMALL
No Charge or Current Charge


@<TRIPOS>ATOM
      1 C18        -43.9940   -28.8950     6.2360 ca         1 QZ6       0.192900
      2 C13        -44.0370   -32.9050    -0.1660 cy         1 QZ6      -0.288400
      3 C12        -43.4850   -31.4180    -0.1060 cy         1 QZ6      -0.047400
      4 C11        -44.5740   -31.2450     1.0470 cy         1 QZ6      -0.287700
      5 C10        -44.1220   -30.5470     2.3270 c3         1 QZ6       0.268800
      6 C20        -47.8230   -29.2090     4.7510 cp         1 QZ6      -0.063000
      7 C02        -50.6170   -28.9640     4.7190 ca         1 QZ6       0.186000
      8 C03        -49.9040   -28.4960     5.8390 ca         1 QZ6      -0.168000
      9 C04        -48.5150   -28.6380     5.8130 ca         1 QZ6       0.009800
     10 C06        -46.2460   -28.6080     6.3600 ca         1 QZ6       0.206500
     11 C07        -46.3980   -29.1840     5.0940 cp         1 QZ6      -0.252000
     12 C08        -45.2320   -29.6060     4.4280 ca         1 QZ6       0.437900
     13 C21        -48.5360   -29.6860     3.6290 ca         1 QZ6      -0.048000
     14 C22        -49.9440   -29.5550     3.6240 ca         1 QZ6      -0.166000
     15 F01        -51.9630   -28.8520     4.6920 f          1 QZ6      -0.182000
     16 N05        -47.5480   -28.2860     6.7620 na         1 QZ6      -0.331300
     17 N09        -45.2710   -30.1740     3.1630 nu         1 QZ6      -0.945100
     18 N17        -44.0220   -29.4620     5.0060 nb         1 QZ6      -0.276000
     19 N19        -45.0530   -28.4520     6.9530 nb         1 QZ6      -0.235000
     20 S14        -45.1340   -32.9630     1.2690 s6         1 QZ6       1.056000
     21 H181       -43.0140   -28.7800     6.6960 h5         1 QZ6       0.052100
     22 H131       -44.6240   -33.1060    -1.0660 h1         1 QZ6       0.111700
     23 H132       -43.2590   -33.6670    -0.0700 h1         1 QZ6       0.111700
     24 H121       -43.6380   -30.8100    -1.0050 hc         1 QZ6       0.076200
     25 H122       -42.4410   -31.3310     0.2190 hc         1 QZ6       0.076200
     26 H111       -45.4260   -30.6900     0.6450 h1         1 QZ6       0.098700
     27 H102       -43.5590   -29.6440     2.0460 h1         1 QZ6       0.079200
     28 H101       -43.4330   -31.2090     2.8730 h1         1 QZ6       0.079200
     29 H031       -50.4160   -28.0450     6.6850 ha         1 QZ6       0.139000
     30 H211       -48.0320   -30.1470     2.7860 ha         1 QZ6       0.109000
     31 H221       -50.5170   -29.9130     2.7730 ha         1 QZ6       0.134000
     32 H051       -47.7590   -27.8460     7.6500 hn         1 QZ6       0.370000
     33 H091       -46.1780   -30.1150     2.7090 hn         1 QZ6       0.495000
     34 O15        -44.5110   -33.6390     2.4140 o          1 QZ6      -0.501000
     35 O16        -46.5420   -33.1580     0.8990 o          1 QZ6      -0.501000
@<TRIPOS>BOND
     1     1    18 ar  
     2     1    19 ar  
     3     1    21 1   
     4     2     3 1   
     5     2    20 1   
     6     2    22 1   
     7     2    23 1   
     8     3     4 1   
     9     3    24 1   
    10     3    25 1   
    11     4     5 1   
    12     4    20 1   
    13     4    26 1   
    14     5    17 1   
    15     5    27 1   
    16     5    28 1   
    17     6     9 ar  
    18     6    11 1   
    19     6    13 ar  
    20     7     8 ar  
    21     7    14 ar  
    22     7    15 1   
    23     8     9 ar  
    24     8    29 1   
    25     9    16 1   
    26    10    11 ar  
    27    10    16 1   
    28    10    19 ar  
    29    11    12 ar  
    30    12    17 1   
    31    12    18 ar  
    32    13    14 ar  
    33    13    30 1   
    34    14    31 1   
    35    16    32 1   
    36    17    33 1   
    37    20    34 2   
    38    20    35 2   
@<TRIPOS>SUBSTRUCTURE
     1 QZ6         1 TEMP              0 ****  ****    0 ROOT
