@<TRIPOS>MOLECULE
QZ7
   63    64     1     0     0
SMALL
No Charge or Current Charge


@<TRIPOS>ATOM
      1 C02         62.5530   -18.2640    -9.1060 c6         1 QZ7       0.178000
      2 C04         61.6080   -17.2620    -8.3990 c6         1 QZ7      -0.124400
      3 C05         61.8370   -15.8110    -8.9040 c6         1 QZ7      -0.091400
      4 C06         63.3290   -15.3900    -8.7760 c6         1 QZ7       0.194300
      5 C10         63.0750   -10.4650    -9.0030 c3         1 QZ7       0.047700
      6 C11         64.3310    -9.7580    -8.4160 c3         1 QZ7      -0.084400
      7 C12         64.8530   -10.3080    -7.0580 c3         1 QZ7      -0.058700
      8 C13         63.8440   -10.0980    -5.9030 c3         1 QZ7      -0.091100
      9 C14         66.2210    -9.6840    -6.7010 c3         1 QZ7      -0.091100
     10 C15         62.5220    -9.6880   -10.2330 c          1 QZ7       0.581100
     11 C17         61.2970    -7.5930   -10.9280 c3         1 QZ7       0.105700
     12 C18         60.0790    -6.8500   -10.3180 c3         1 QZ7      -0.070400
     13 C19         58.9770    -7.7690    -9.7160 c5         1 QZ7      -0.157700
     14 C20         57.7530    -7.0070    -9.1910 c          1 QZ7       0.565000
     15 C22         57.0080    -9.1200    -9.9990 c5         1 QZ7       0.101000
     16 C23         58.3460    -8.7830   -10.7110 c5         1 QZ7      -0.093400
     17 C25         62.3710    -6.6370   -11.5170 c3         1 QZ7       0.150600
     18 C29         64.2460   -16.3900    -9.5270 c6         1 QZ7      -0.091400
     19 C30         64.0400   -17.8450    -9.0250 c6         1 QZ7      -0.124400
     20 F01         62.3970   -19.5350    -8.5270 f          1 QZ7      -0.122000
     21 F03         62.1740   -18.3950   -10.4540 f          1 QZ7      -0.122000
     22 N09         63.3810   -11.8610    -9.3850 ns         1 QZ7      -0.475900
     23 N16         61.8960    -8.4950    -9.9350 ns         1 QZ7      -0.497900
     24 N21         56.6780    -7.8200    -9.4210 ns         1 QZ7      -0.514900
     25 O07         63.5390   -14.0690    -9.3090 os         1 QZ7      -0.456100
     26 O24         57.6490    -5.8400    -8.8500 o          1 QZ7      -0.560000
     27 O27         62.6190   -10.0950   -11.3850 o          1 QZ7      -0.606100
     28 H1          61.7790   -17.3030    -7.3140 hc         1 QZ7       0.070950
     29 H2          60.5620   -17.5560    -8.5590 hc         1 QZ7       0.070950
     30 H3          61.5220   -15.7290    -9.9540 hc         1 QZ7       0.066950
     31 H4          61.1970   -15.1250    -8.3350 hc         1 QZ7       0.066950
     32 H5          63.6170   -15.3910    -7.7130 h1         1 QZ7       0.066700
     33 H6          62.2710   -10.4660    -8.2560 h1         1 QZ7       0.078700
     34 H7          65.1350    -9.8190    -9.1610 hc         1 QZ7       0.057700
     35 H8          64.1170    -8.6890    -8.2910 hc         1 QZ7       0.057700
     36 H9          65.0170   -11.3870    -7.1650 hc         1 QZ7       0.050700
     37 H10         64.2500   -10.4880    -4.9620 hc         1 QZ7       0.035867
     38 H11         63.6270    -9.0320    -5.7640 hc         1 QZ7       0.035867
     39 H12         62.9000   -10.6180    -6.0950 hc         1 QZ7       0.035867
     40 H13         66.6090   -10.1070    -5.7670 hc         1 QZ7       0.035867
     41 H14         66.9570    -9.8830    -7.4900 hc         1 QZ7       0.035867
     42 H15         66.1360    -8.5980    -6.5770 hc         1 QZ7       0.035867
     43 H16         60.9250    -8.2080   -11.7590 h1         1 QZ7       0.092700
     44 H17         60.4420    -6.1620    -9.5440 hc         1 QZ7       0.065700
     45 H18         59.6300    -6.2190   -11.0950 hc         1 QZ7       0.065700
     46 H19         59.3830    -8.3310    -8.8660 hc         1 QZ7       0.094700
     47 H20         56.2460    -9.4820   -10.7020 h1         1 QZ7       0.040200
     48 H21         57.1480    -9.8790    -9.2170 h1         1 QZ7       0.040200
     49 H22         58.9680    -9.6690   -10.8820 hc         1 QZ7       0.064700
     50 H23         58.1570    -8.3190   -11.6870 hc         1 QZ7       0.064700
     51 H24         63.2170    -7.2340   -11.8820 h1         1 QZ7       0.021700
     52 H25         62.7470    -5.9840   -10.7180 h1         1 QZ7       0.021700
     53 H26         64.0420   -16.3360   -10.6060 hc         1 QZ7       0.066950
     54 H27         65.2960   -16.0980    -9.3940 hc         1 QZ7       0.066950
     55 H28         64.3870   -17.9270    -7.9860 hc         1 QZ7       0.070950
     56 H29         64.6580   -18.5370    -9.6140 hc         1 QZ7       0.070950
     57 H30         63.7930   -12.0370   -10.2930 hn         1 QZ7       0.335500
     58 H31         61.8600    -8.2270    -8.9580 hn         1 QZ7       0.315500
     59 H32         55.7460    -7.4720    -9.2230 hn         1 QZ7       0.324500
     60 H33         62.5630    -5.2760   -12.9190 ho         1 QZ7       0.448000
     61 C08         63.1110   -12.9680    -8.6330 c          1 QZ7       0.641100
     62 O26         61.8340    -5.8490   -12.5900 oh         1 QZ7      -0.655000
     63 O28         62.5760   -12.9640    -7.5370 o          1 QZ7      -0.550000
@<TRIPOS>BOND
     1     1     2 1   
     2     1    19 1   
     3     1    20 1   
     4     1    21 1   
     5     2     3 1   
     6     2    28 1   
     7     2    29 1   
     8     3     4 1   
     9     3    30 1   
    10     3    31 1   
    11     4    18 1   
    12     4    25 1   
    13     4    32 1   
    14     5     6 1   
    15     5    10 1   
    16     5    22 1   
    17     5    33 1   
    18     6     7 1   
    19     6    34 1   
    20     6    35 1   
    21     7     8 1   
    22     7     9 1   
    23     7    36 1   
    24     8    37 1   
    25     8    38 1   
    26     8    39 1   
    27     9    40 1   
    28     9    41 1   
    29     9    42 1   
    30    10    23 1   
    31    10    27 2   
    32    11    12 1   
    33    11    17 1   
    34    11    23 1   
    35    11    43 1   
    36    12    13 1   
    37    12    44 1   
    38    12    45 1   
    39    13    14 1   
    40    13    16 1   
    41    13    46 1   
    42    14    24 1   
    43    14    26 2   
    44    15    16 1   
    45    15    24 1   
    46    15    47 1   
    47    15    48 1   
    48    16    49 1   
    49    16    50 1   
    50    17    51 1   
    51    17    52 1   
    52    17    62 1   
    53    18    19 1   
    54    18    53 1   
    55    18    54 1   
    56    19    55 1   
    57    19    56 1   
    58    22    57 1   
    59    22    61 1   
    60    23    58 1   
    61    24    59 1   
    62    25    61 1   
    63    60    62 1   
    64    61    63 2   
@<TRIPOS>SUBSTRUCTURE
     1 QZ7         1 TEMP              0 ****  ****    0 ROOT
