@<TRIPOS>MOLECULE
QZ7
   63    64     1     0     0
SMALL
bcc


@<TRIPOS>ATOM
      1 C02         60.7670   -16.8740    -9.4950 c6         1 QZ7       0.420600
      2 C04         60.1250   -15.5160    -9.6570 c6         1 QZ7      -0.124400
      3 C05         61.1810   -14.4160    -9.7240 c6         1 QZ7      -0.091400
      4 C06         62.1020   -14.4770    -8.5110 c6         1 QZ7       0.171100
      5 C10         63.8580   -10.0320    -8.4860 c3         1 QZ7       0.047700
      6 C11         65.2310    -9.3780    -8.6370 c3         1 QZ7      -0.084400
      7 C12         66.2600    -9.7630    -7.5720 c3         1 QZ7      -0.058700
      8 C13         65.7840    -9.4360    -6.1610 c3         1 QZ7      -0.091100
      9 C14         67.5810    -9.0610    -7.8710 c3         1 QZ7      -0.091100
     10 C15         62.9530    -9.5420    -9.6210 c          1 QZ7       0.648100
     11 C17         61.1850    -7.9120   -10.1910 c3         1 QZ7       0.105700
     12 C18         59.7340    -8.2100    -9.8160 c3         1 QZ7      -0.070400
     13 C19         59.4000    -9.6930    -9.8440 c5         1 QZ7      -0.157700
     14 C20         57.9610    -9.9670    -9.4340 c          1 QZ7       0.707500
     15 C22         58.4490   -11.4670   -11.1740 c5         1 QZ7       0.101000
     16 C23         59.5120   -10.3680   -11.2120 c5         1 QZ7      -0.093400
     17 C25         61.4930    -6.4180   -10.1930 c3         1 QZ7       0.127400
     18 C29         62.7630   -15.8420    -8.3860 c6         1 QZ7      -0.091400
     19 C30         61.7110   -16.9450    -8.3160 c6         1 QZ7      -0.124400
     20 F01         59.8000   -17.8380    -9.3790 f          1 QZ7      -0.243300
     21 F03         61.4520   -17.1920   -10.6450 f          1 QZ7      -0.243300
     22 N09         63.9810   -11.4660    -8.5370 ns         1 QZ7      -0.542900
     23 N16         62.1000    -8.5660    -9.2790 ns         1 QZ7      -0.564900
     24 N21         57.4850   -10.9340   -10.2360 ns         1 QZ7      -0.581900
     25 O07         63.1620   -13.5210    -8.6270 os         1 QZ7      -0.432900
     26 O24         57.3500    -9.4150    -8.5330 o          1 QZ7      -0.635500
     27 O27         63.0620   -10.0030   -10.7460 o          1 QZ7      -0.606100
     28 H1          59.4660   -15.3490    -8.8010 hc         1 QZ7       0.070950
     29 H2          59.4990   -15.5000   -10.5510 hc         1 QZ7       0.070950
     30 H3          61.7760   -14.5150   -10.6360 hc         1 QZ7       0.066950
     31 H4          60.6820   -13.4480    -9.7710 hc         1 QZ7       0.066950
     32 H5          61.5240   -14.2750    -7.6040 h1         1 QZ7       0.066700
     33 H6          63.4280    -9.7470    -7.5220 h1         1 QZ7       0.078700
     34 H7          65.6260    -9.6220    -9.6290 hc         1 QZ7       0.057700
     35 H8          65.0880    -8.2930    -8.6200 hc         1 QZ7       0.057700
     36 H9          66.4360   -10.8430    -7.6310 hc         1 QZ7       0.050700
     37 H10         66.5620    -9.6640    -5.4300 hc         1 QZ7       0.035867
     38 H11         65.5400    -8.3760    -6.0640 hc         1 QZ7       0.035867
     39 H12         64.9000   -10.0080    -5.8760 hc         1 QZ7       0.035867
     40 H13         68.3480    -9.3430    -7.1490 hc         1 QZ7       0.035867
     41 H14         67.9540    -9.3110    -8.8650 hc         1 QZ7       0.035867
     42 H15         67.4640    -7.9750    -7.8220 hc         1 QZ7       0.035867
     43 H16         61.3930    -8.3070   -11.1860 h1         1 QZ7       0.092700
     44 H17         59.5290    -7.8070    -8.8190 hc         1 QZ7       0.065700
     45 H18         59.0770    -7.6790   -10.5090 hc         1 QZ7       0.065700
     46 H19         60.0350   -10.2240    -9.1230 hc         1 QZ7       0.094700
     47 H20         57.9940   -11.6490   -12.1470 h1         1 QZ7       0.040200
     48 H21         58.8590   -12.4180   -10.8170 h1         1 QZ7       0.040200
     49 H22         60.5060   -10.7610   -11.4140 hc         1 QZ7       0.064700
     50 H23         59.2750    -9.6490   -12.0000 hc         1 QZ7       0.064700
     51 H24         62.5570    -6.2840   -10.4240 h1         1 QZ7       0.021700
     52 H25         61.3280    -6.0160    -9.1830 h1         1 QZ7       0.021700
     53 H26         63.4300   -16.0080    -9.2350 hc         1 QZ7       0.066950
     54 H27         63.3780   -15.8770    -7.4850 hc         1 QZ7       0.066950
     55 H28         61.1190   -16.8370    -7.4030 hc         1 QZ7       0.070950
     56 H29         62.1880   -17.9260    -8.2770 hc         1 QZ7       0.070950
     57 H30         64.7750   -11.8610    -9.0170 hn         1 QZ7       0.335500
     58 H31         62.0470    -8.3050    -8.3060 hn         1 QZ7       0.315500
     59 H32         56.5830   -11.3580   -10.0850 hn         1 QZ7       0.324500
     60 H33         60.8430    -4.8410   -11.1110 ho         1 QZ7       0.409000
     61 C08         62.8980   -12.2450    -8.3390 c          1 QZ7       0.757100
     62 O26         60.6700    -5.7870   -11.1440 oh         1 QZ7      -0.592800
     63 O28         61.8310   -11.8350    -7.9320 o          1 QZ7      -0.599000
@<TRIPOS>BOND
     1     1     2 1   
     2     1    19 1   
     3     1    20 1   
     4     1    21 1   
     5     2     3 1   
     6     2    28 1   
     7     2    29 1   
     8     3     4 1   
     9     3    30 1   
    10     3    31 1   
    11     4    18 1   
    12     4    25 1   
    13     4    32 1   
    14     5     6 1   
    15     5    10 1   
    16     5    22 1   
    17     5    33 1   
    18     6     7 1   
    19     6    34 1   
    20     6    35 1   
    21     7     8 1   
    22     7     9 1   
    23     7    36 1   
    24     8    37 1   
    25     8    38 1   
    26     8    39 1   
    27     9    40 1   
    28     9    41 1   
    29     9    42 1   
    30    10    23 1   
    31    10    27 2   
    32    11    12 1   
    33    11    17 1   
    34    11    23 1   
    35    11    43 1   
    36    12    13 1   
    37    12    44 1   
    38    12    45 1   
    39    13    14 1   
    40    13    16 1   
    41    13    46 1   
    42    14    24 1   
    43    14    26 2   
    44    15    16 1   
    45    15    24 1   
    46    15    47 1   
    47    15    48 1   
    48    16    49 1   
    49    16    50 1   
    50    17    51 1   
    51    17    52 1   
    52    17    62 1   
    53    18    19 1   
    54    18    53 1   
    55    18    54 1   
    56    19    55 1   
    57    19    56 1   
    58    22    57 1   
    59    22    61 1   
    60    23    58 1   
    61    24    59 1   
    62    25    61 1   
    63    60    62 1   
    64    61    63 2   
@<TRIPOS>SUBSTRUCTURE
     1 QZ7         1 TEMP              0 ****  ****    0 ROOT
