@<TRIPOS>MOLECULE
QZ8
   28    30     1     0     0
SMALL
bcc


@<TRIPOS>ATOM
      1 C          118.9730   -18.6920     4.4430 c3         1 QZ8      -0.039800
      2 C1         117.5460   -18.7360     4.8540 cc         1 QZ8      -0.017600
      3 C2         116.5460   -17.7650     4.9330 cd         1 QZ8      -0.300100
      4 N2         116.9580   -19.8680     5.2460 na         1 QZ8       0.013400
      5 N1         115.6580   -19.7570     5.5660 nc         1 QZ8      -0.566800
      6 C6         115.4130   -18.4830     5.3690 cd         1 QZ8       0.474200
      7 N          114.2020   -17.8760     5.5270 ns         1 QZ8      -0.521400
      8 C5         114.0050   -16.5470     5.2410 c          1 QZ8       0.716700
      9 O          112.9000   -16.0330     5.3740 o          1 QZ8      -0.626500
     10 C4         115.1820   -15.8140     4.7930 cc         1 QZ8      -0.259200
     11 C3         116.4130   -16.3710     4.6480 cd         1 QZ8       0.118600
     12 C7         117.5600   -15.5480     4.2170 ca         1 QZ8      -0.063800
     13 C12        118.7230   -15.5010     4.9840 ca         1 QZ8      -0.111000
     14 C11        119.7890   -14.7030     4.5960 ca         1 QZ8      -0.131500
     15 C10        119.7070   -13.9480     3.4330 ca         1 QZ8      -0.120000
     16 C9         118.5520   -13.9900     2.6640 ca         1 QZ8      -0.131500
     17 C8         117.4820   -14.7820     3.0560 ca         1 QZ8      -0.111000
     18 H1         119.6060   -18.3240     5.2510 hc         1 QZ8       0.060033
     19 H2         119.3280   -19.6850     4.1680 hc         1 QZ8       0.060033
     20 H3         119.1120   -18.0320     3.5900 hc         1 QZ8       0.060033
     21 H4         117.3970   -20.7750     5.3020 hn         1 QZ8       0.324700
     22 H5         113.4080   -18.4200     5.8370 hn         1 QZ8       0.339500
     23 H6         115.0340   -14.7590     4.6010 ha         1 QZ8       0.160000
     24 H7         118.7910   -16.0810     5.8960 ha         1 QZ8       0.137500
     25 H8         120.6830   -14.6710     5.2050 ha         1 QZ8       0.133500
     26 H9         120.5400   -13.3280     3.1280 ha         1 QZ8       0.133000
     27 H10        118.4830   -13.4070     1.7550 ha         1 QZ8       0.133500
     28 H11        116.5860   -14.8180     2.4480 ha         1 QZ8       0.137500
@<TRIPOS>BOND
     1     1     2 1   
     2     1    18 1   
     3     1    19 1   
     4     1    20 1   
     5     2     3 2   
     6     2     4 1   
     7     3     6 1   
     8     3    11 1   
     9     4     5 1   
    10     4    21 1   
    11     5     6 2   
    12     6     7 1   
    13     7     8 1   
    14     7    22 1   
    15     8     9 2   
    16     8    10 1   
    17    10    11 2   
    18    10    23 1   
    19    11    12 1   
    20    12    13 ar  
    21    12    17 ar  
    22    13    14 ar  
    23    13    24 1   
    24    14    15 ar  
    25    14    25 1   
    26    15    16 ar  
    27    15    26 1   
    28    16    17 ar  
    29    16    27 1   
    30    17    28 1   
@<TRIPOS>SUBSTRUCTURE
     1 QZ8         1 TEMP              0 ****  ****    0 ROOT
