@<TRIPOS>MOLECULE
QZ8
   28    30     1     0     0
SMALL
No Charge or Current Charge


@<TRIPOS>ATOM
      1 C          118.9470   -18.6340     4.4170 c3         1 QZ8      -0.039800
      2 C1         117.5430   -18.7000     4.9650 cc         1 QZ8      -0.068300
      3 C2         116.5020   -17.8050     5.0390 cd         1 QZ8      -0.234800
      4 N2         116.9580   -19.8830     5.4380 na         1 QZ8       0.013800
      5 N1         115.6030   -19.7690     5.7430 nc         1 QZ8      -0.566800
      6 C6         115.3750   -18.5090     5.4700 cd         1 QZ8       0.408900
      7 N          114.1730   -17.8930     5.5140 ns         1 QZ8      -0.454400
      8 C5         113.9620   -16.6130     5.1000 c          1 QZ8       0.574200
      9 O          112.8480   -16.1180     5.1110 o          1 QZ8      -0.551000
     10 C4         115.1680   -15.8920     4.6550 cc         1 QZ8      -0.309200
     11 C3         116.4580   -16.4040     4.6740 cd         1 QZ8       0.118600
     12 C7         117.5970   -15.5760     4.2240 ca         1 QZ8      -0.063800
     13 C12        118.8250   -15.6090     4.9170 ca         1 QZ8      -0.093000
     14 C11        119.8990   -14.7950     4.5170 ca         1 QZ8      -0.113500
     15 C10        119.7520   -13.9220     3.4280 ca         1 QZ8      -0.102000
     16 C9         118.5240   -13.8530     2.7510 ca         1 QZ8      -0.113500
     17 C8         117.4500   -14.6650     3.1540 ca         1 QZ8      -0.093000
     18 H1         119.6650   -18.3280     5.1860 hc         1 QZ8       0.060033
     19 H2         119.2670   -19.6160     4.0480 hc         1 QZ8       0.060033
     20 H3         119.0150   -17.9410     3.5710 hc         1 QZ8       0.060033
     21 H4         117.4400   -20.7760     5.5330 hn         1 QZ8       0.375000
     22 H5         113.3590   -18.4060     5.8170 hn         1 QZ8       0.339500
     23 H6         114.9760   -14.8690     4.3590 ha         1 QZ8       0.210000
     24 H7         118.9360   -16.2420     5.7930 ha         1 QZ8       0.119500
     25 H8         120.8410   -14.8340     5.0600 ha         1 QZ8       0.115500
     26 H9         120.5820   -13.2910     3.1180 ha         1 QZ8       0.115000
     27 H10        118.4030   -13.1690     1.9140 ha         1 QZ8       0.115500
     28 H11        116.5100   -14.6040     2.6100 ha         1 QZ8       0.119500
@<TRIPOS>BOND
     1     1     2 1   
     2     1    18 1   
     3     1    19 1   
     4     1    20 1   
     5     2     3 2   
     6     2     4 1   
     7     3     6 1   
     8     3    11 1   
     9     4     5 1   
    10     4    21 1   
    11     5     6 2   
    12     6     7 1   
    13     7     8 1   
    14     7    22 1   
    15     8     9 2   
    16     8    10 1   
    17    10    11 2   
    18    10    23 1   
    19    11    12 1   
    20    12    13 ar  
    21    12    17 ar  
    22    13    14 ar  
    23    13    24 1   
    24    14    15 ar  
    25    14    25 1   
    26    15    16 ar  
    27    15    26 1   
    28    16    17 ar  
    29    16    27 1   
    30    17    28 1   
@<TRIPOS>SUBSTRUCTURE
     1 QZ8         1 TEMP              0 ****  ****    0 ROOT
