@<TRIPOS>MOLECULE
QZA
   17    16     1     0     0
SMALL
abcg2


@<TRIPOS>ATOM
      1 N          -14.9300    -6.9490   -10.9720 n8         1 QZA      -0.988200
      2 CA         -15.1870    -7.7840   -12.1380 c3         1 QZA       0.135500
      3 CB         -16.6770    -8.0730   -12.2440 c3         1 QZA      -0.102100
      4 C          -14.6790    -7.1060   -13.4180 c3         1 QZA       0.175300
      5 O          -15.4190    -5.9540   -13.7620 oh         1 QZA      -0.647000
      6 C1         -13.2460    -6.6020   -13.3260 c3         1 QZA       0.130600
      7 CL         -12.1110    -7.9150   -12.8630 cl         1 QZA      -0.296000
      8 H1         -15.4410    -7.3170   -10.1800 hn         1 QZA       0.395500
      9 H2         -13.9540    -7.0180   -10.7090 hn         1 QZA       0.395500
     10 H4         -14.6750    -8.7550   -12.0800 h1         1 QZA       0.031700
     11 H5         -17.0120    -8.6750   -11.3980 hc         1 QZA       0.041033
     12 H6         -17.2650    -7.1530   -12.2440 hc         1 QZA       0.041033
     13 H7         -16.9100    -8.6310   -13.1520 hc         1 QZA       0.041033
     14 H8         -14.7270    -7.8540   -14.2210 h1         1 QZA       0.034700
     15 H9         -16.2610    -6.2320   -14.1330 ho         1 QZA       0.445000
     16 H10        -12.9120    -6.2230   -14.2900 h1         1 QZA       0.081700
     17 H11        -13.1490    -5.8130   -12.5830 h1         1 QZA       0.081700
@<TRIPOS>BOND
     1     1     2 1   
     2     1     8 1   
     3     1     9 1   
     4     2     3 1   
     5     2     4 1   
     6     2    10 1   
     7     3    11 1   
     8     3    12 1   
     9     3    13 1   
    10     4     5 1   
    11     4     6 1   
    12     4    14 1   
    13     5    15 1   
    14     6     7 1   
    15     6    16 1   
    16     6    17 1   
@<TRIPOS>SUBSTRUCTURE
     1 QZA         1 TEMP              0 ****  ****    0 ROOT
