@<TRIPOS>MOLECULE
QZA
   17    16     1     0     0
SMALL
No Charge or Current Charge


@<TRIPOS>ATOM
      1 N          -15.4380    -6.6290   -11.1290 n8         1 QZA      -0.988200
      2 CA         -15.2290    -7.6730   -12.1690 c3         1 QZA       0.135500
      3 CB         -16.5670    -8.4020   -12.4070 c3         1 QZA      -0.102100
      4 C          -14.6590    -7.0370   -13.4770 c3         1 QZA       0.175300
      5 O          -15.3410    -5.7890   -13.6290 oh         1 QZA      -0.647000
      6 C1         -13.1320    -6.7780   -13.4230 c3         1 QZA       0.130600
      7 Cl         -12.1690    -8.3280   -13.4010 cl         1 QZA      -0.296000
      8 H1         -16.0290    -7.0190   -10.3840 hn         1 QZA       0.395500
      9 H2         -14.5490    -6.4530   -10.6440 hn         1 QZA       0.395500
     10 H4         -14.5190    -8.4140   -11.7760 h1         1 QZA       0.031700
     11 H5         -16.9340    -8.8570   -11.4790 hc         1 QZA       0.041033
     12 H6         -17.3340    -7.7130   -12.7810 hc         1 QZA       0.041033
     13 H7         -16.4390    -9.2030   -13.1450 hc         1 QZA       0.041033
     14 H8         -14.8650    -7.6960   -14.3310 h1         1 QZA       0.034700
     15 H9         -15.6620    -5.6420   -12.7010 ho         1 QZA       0.445000
     16 H10        -12.8180    -6.2150   -14.3110 h1         1 QZA       0.081700
     17 H11        -12.8680    -6.2040   -12.5260 h1         1 QZA       0.081700
@<TRIPOS>BOND
     1     1     2 1   
     2     1     8 1   
     3     1     9 1   
     4     2     3 1   
     5     2     4 1   
     6     2    10 1   
     7     3    11 1   
     8     3    12 1   
     9     3    13 1   
    10     4     5 1   
    11     4     6 1   
    12     4    14 1   
    13     5    15 1   
    14     6     7 1   
    15     6    16 1   
    16     6    17 1   
@<TRIPOS>SUBSTRUCTURE
     1 QZA         1 TEMP              0 ****  ****    0 ROOT
