@<TRIPOS>MOLECULE
QZC
   51    54     1     0     0
SMALL
No Charge or Current Charge


@<TRIPOS>ATOM
      1 N1         -21.9690     7.1290    29.6140 n3         1 QZC      -0.773500
      2 N3         -17.7110     4.1630    24.2300 nb         1 QZC      -0.655000
      3 C4         -20.4600     4.8930    28.1250 c          1 QZC       0.607100
      4 C5         -19.0930     5.1090    25.9990 ca         1 QZC      -0.077000
      5 C6         -18.8280     4.1580    24.9920 ca         1 QZC       0.309900
      6 C7         -16.8080     5.1460    24.4490 ca         1 QZC       0.360900
      7 C8         -16.9890     6.1590    25.4120 ca         1 QZC      -0.092000
      8 C10        -16.2230     8.1900    26.5160 ca         1 QZC      -0.107000
      9 C13        -18.1590     6.1550    26.2050 ca         1 QZC      -0.004000
     10 C15        -21.9810     2.8680    30.1710 ca         1 QZC      -0.090000
     11 C17        -22.3050     3.1400    32.5670 ca         1 QZC      -0.091000
     12 C20        -22.4110     6.6220    30.9390 c6         1 QZC       0.257100
     13 C16        -22.0960     2.3100    31.4540 ca         1 QZC       0.127000
     14 C18        -22.3990     4.5320    32.3970 ca         1 QZC      -0.100000
     15 C19        -22.2820     5.1010    31.1140 ca         1 QZC      -0.061300
     16 S          -22.1740     8.8100    29.3970 s6         1 QZC       1.331200
     17 O          -21.4980     9.2130    28.1630 o          1 QZC      -0.575500
     18 O1         -23.5820     9.1120    29.6600 o          1 QZC      -0.575500
     19 N          -21.2230     9.3760    30.7040 n3         1 QZC      -0.777500
     20 C1         -19.8150     8.9200    30.6840 c3         1 QZC       0.187600
     21 C          -21.3380    10.8310    30.9220 c3         1 QZC       0.187600
     22 C14        -22.0730     4.2620    29.9960 ca         1 QZC      -0.046300
     23 C3         -21.9270     4.8790    28.6020 c6         1 QZC      -0.094400
     24 C2         -22.5120     6.3060    28.5180 c6         1 QZC       0.221800
     25 O2         -19.5100     4.7840    28.8940 o          1 QZC      -0.564100
     26 N2         -20.2920     4.9830    26.7510 ns         1 QZC      -0.171000
     27 C12        -18.3590     7.1980    27.1390 ca         1 QZC      -0.086000
     28 C11        -17.3920     8.2070    27.2930 ca         1 QZC      -0.092000
     29 C9         -16.0220     7.1700    25.5730 ca         1 QZC      -0.089000
     30 H1         -19.5320     3.3490    24.7990 h4         1 QZC       0.019100
     31 H2         -15.9170     5.1270    23.8220 h4         1 QZC       0.021100
     32 H3         -15.4770     8.9730    26.6390 ha         1 QZC       0.116000
     33 H4         -21.8170     2.2170    29.3160 ha         1 QZC       0.128000
     34 H5         -22.3950     2.7040    33.5590 ha         1 QZC       0.133000
     35 H6         -21.8400     7.1020    31.7470 h1         1 QZC       0.067200
     36 H7         -23.4660     6.8820    31.1110 h1         1 QZC       0.067200
     37 H8         -22.5660     5.1690    33.2640 ha         1 QZC       0.120000
     38 H9         -19.2850     9.2600    31.5830 h1         1 QZC       0.055533
     39 H10        -19.7390     7.8250    30.6580 h1         1 QZC       0.055533
     40 H11        -19.2840     9.3180    29.8090 h1         1 QZC       0.055533
     41 H12        -20.7840    11.1350    31.8200 h1         1 QZC       0.055533
     42 H13        -20.9360    11.3920    30.0680 h1         1 QZC       0.055533
     43 H14        -22.3860    11.1260    31.0650 h1         1 QZC       0.055533
     44 H15        -22.4980     4.3160    27.8520 hc         1 QZC       0.065700
     45 H16        -22.2690     6.7390    27.5350 h1         1 QZC       0.067700
     46 H17        -23.6100     6.2590    28.5820 h1         1 QZC       0.067700
     47 H18        -21.1440     4.9750    26.2040 hn         1 QZC       0.156000
     48 H19        -19.2610     7.2500    27.7420 ha         1 QZC       0.138000
     49 H20        -17.5520     9.0060    28.0130 ha         1 QZC       0.121000
     50 H21        -15.1190     7.1690    24.9650 ha         1 QZC       0.117000
     51 Cl         -21.9790     0.5680    31.6680 cl         1 QZC      -0.207000
@<TRIPOS>BOND
     1     1    12 1   
     2     1    16 1   
     3     1    24 1   
     4     2     5 ar  
     5     2     6 ar  
     6     3    23 1   
     7     3    25 2   
     8     3    26 1   
     9     4     5 ar  
    10     4     9 ar  
    11     4    26 1   
    12     5    30 1   
    13     6     7 ar  
    14     6    31 1   
    15     7     9 ar  
    16     7    29 ar  
    17     8    28 ar  
    18     8    29 ar  
    19     8    32 1   
    20     9    27 ar  
    21    10    13 ar  
    22    10    22 ar  
    23    10    33 1   
    24    11    13 ar  
    25    11    14 ar  
    26    11    34 1   
    27    12    15 1   
    28    12    35 1   
    29    12    36 1   
    30    13    51 1   
    31    14    15 ar  
    32    14    37 1   
    33    15    22 ar  
    34    16    17 2   
    35    16    18 2   
    36    16    19 1   
    37    19    20 1   
    38    19    21 1   
    39    20    38 1   
    40    20    39 1   
    41    20    40 1   
    42    21    41 1   
    43    21    42 1   
    44    21    43 1   
    45    22    23 1   
    46    23    24 1   
    47    23    44 1   
    48    24    45 1   
    49    24    46 1   
    50    26    47 1   
    51    27    28 ar  
    52    27    48 1   
    53    28    49 1   
    54    29    50 1   
@<TRIPOS>SUBSTRUCTURE
     1 QZC         1 TEMP              0 ****  ****    0 ROOT
