@<TRIPOS>MOLECULE
QZC
   51    54     1     0     0
SMALL
abcg2


@<TRIPOS>ATOM
      1 N1         -22.1590     7.1530    29.6170 n3         1 QZC      -0.773500
      2 N3         -17.2230     3.9310    25.0600 nb         1 QZC      -0.655000
      3 C4         -20.5060     5.0450    28.1720 c          1 QZC       0.607100
      4 C5         -18.9960     5.0450    26.2460 ca         1 QZC      -0.077000
      5 C6         -18.4390     3.9360    25.6630 ca         1 QZC       0.309900
      6 C7         -16.5400     5.0530    25.0510 ca         1 QZC       0.360900
      7 C8         -17.0050     6.2660    25.6140 ca         1 QZC      -0.092000
      8 C10        -16.7430     8.6160    26.0990 ca         1 QZC      -0.107000
      9 C13        -18.2890     6.2760    26.2270 ca         1 QZC      -0.004000
     10 C15        -21.9990     3.0000    30.1200 ca         1 QZC      -0.090000
     11 C17        -22.4320     3.2360    32.4860 ca         1 QZC      -0.091000
     12 C20        -22.6590     6.6710    30.9050 c6         1 QZC       0.257100
     13 C16        -22.1390     2.4470    31.3800 ca         1 QZC       0.127000
     14 C18        -22.5850     4.6010    32.3030 ca         1 QZC      -0.100000
     15 C19        -22.4470     5.1840    31.0430 ca         1 QZC      -0.061300
     16 S          -21.9800     8.7710    29.4430 s6         1 QZC       1.331200
     17 O          -21.5180     8.9800    28.0870 o          1 QZC      -0.575500
     18 O1         -23.1590     9.5030    29.8500 o          1 QZC      -0.575500
     19 N          -20.8310     9.0590    30.5670 n3         1 QZC      -0.777500
     20 C1         -19.5050     8.4910    30.3080 c3         1 QZC       0.187600
     21 C          -20.8210    10.3710    31.2200 c3         1 QZC       0.187600
     22 C14        -22.1530     4.3760    29.9450 ca         1 QZC      -0.046300
     23 C3         -21.9840     4.9650    28.5660 c6         1 QZC      -0.094400
     24 C2         -22.6180     6.3590    28.4770 c6         1 QZC       0.221800
     25 O2         -19.6080     5.2190    28.9840 o          1 QZC      -0.564100
     26 N2         -20.2850     4.9520    26.8360 ns         1 QZC      -0.171000
     27 C12        -18.7870     7.4870    26.7570 ca         1 QZC      -0.086000
     28 C11        -18.0260     8.6280    26.6900 ca         1 QZC      -0.092000
     29 C9         -16.2420     7.4560    25.5670 ca         1 QZC      -0.089000
     30 H1         -18.9810     2.9970    25.6710 h4         1 QZC       0.019100
     31 H2         -15.5630     5.0370    24.5760 h4         1 QZC       0.021100
     32 H3         -16.1620     9.5280    26.0650 ha         1 QZC       0.116000
     33 H4         -21.7710     2.3700    29.2700 ha         1 QZC       0.128000
     34 H5         -22.5360     2.7920    33.4660 ha         1 QZC       0.133000
     35 H6         -22.1300     7.1940    31.6990 h1         1 QZC       0.067200
     36 H7         -23.7270     6.9000    31.0090 h1         1 QZC       0.067200
     37 H8         -22.8120     5.2280    33.1580 ha         1 QZC       0.120000
     38 H9         -18.9870     8.4090    31.2630 h1         1 QZC       0.055533
     39 H10        -19.6020     7.4990    29.8750 h1         1 QZC       0.055533
     40 H11        -18.9210     9.1270    29.6380 h1         1 QZC       0.055533
     41 H12        -20.2400    10.2730    32.1360 h1         1 QZC       0.055533
     42 H13        -20.3600    11.1370    30.5890 h1         1 QZC       0.055533
     43 H14        -21.8340    10.6680    31.4740 h1         1 QZC       0.055533
     44 H15        -22.4970     4.3280    27.8420 hc         1 QZC       0.065700
     45 H16        -22.3320     6.8530    27.5540 h1         1 QZC       0.067700
     46 H17        -23.7080     6.2600    28.4970 h1         1 QZC       0.067700
     47 H18        -21.0550     4.6870    26.2400 hn         1 QZC       0.156000
     48 H19        -19.7650     7.5200    27.2110 ha         1 QZC       0.138000
     49 H20        -18.4150     9.5520    27.0980 ha         1 QZC       0.121000
     50 H21        -15.2640     7.4340    25.1020 ha         1 QZC       0.117000
     51 CL         -21.9430     0.7170    31.5860 cl         1 QZC      -0.207000
@<TRIPOS>BOND
     1     1    12 1   
     2     1    16 1   
     3     1    24 1   
     4     2     5 ar  
     5     2     6 ar  
     6     3    23 1   
     7     3    25 2   
     8     3    26 1   
     9     4     5 ar  
    10     4     9 ar  
    11     4    26 1   
    12     5    30 1   
    13     6     7 ar  
    14     6    31 1   
    15     7     9 ar  
    16     7    29 ar  
    17     8    28 ar  
    18     8    29 ar  
    19     8    32 1   
    20     9    27 ar  
    21    10    13 ar  
    22    10    22 ar  
    23    10    33 1   
    24    11    13 ar  
    25    11    14 ar  
    26    11    34 1   
    27    12    15 1   
    28    12    35 1   
    29    12    36 1   
    30    13    51 1   
    31    14    15 ar  
    32    14    37 1   
    33    15    22 ar  
    34    16    17 2   
    35    16    18 2   
    36    16    19 1   
    37    19    20 1   
    38    19    21 1   
    39    20    38 1   
    40    20    39 1   
    41    20    40 1   
    42    21    41 1   
    43    21    42 1   
    44    21    43 1   
    45    22    23 1   
    46    23    24 1   
    47    23    44 1   
    48    24    45 1   
    49    24    46 1   
    50    26    47 1   
    51    27    28 ar  
    52    27    48 1   
    53    28    49 1   
    54    29    50 1   
@<TRIPOS>SUBSTRUCTURE
     1 QZC         1 TEMP              0 ****  ****    0 ROOT
