@<TRIPOS>MOLECULE
QZD
   65    66     1     0     0
SMALL
No Charge or Current Charge


@<TRIPOS>ATOM
      1 C12        -16.2990    -7.4960   -10.1510 c3         1 QZD      -0.070400
      2 C14        -18.3380    -9.0020    -9.6040 c          1 QZD       0.564000
      3 N15        -18.7920   -10.1720   -10.1480 ns         1 QZD      -0.513900
      4 C16        -17.7610   -10.9890   -10.7830 c5         1 QZD       0.099000
      5 C02        -13.5430   -12.2930    -8.9640 c          1 QZD       0.646100
      6 C04        -12.6110    -9.9900    -8.6500 c3         1 QZD       0.045700
      7 C05        -11.2510    -9.3870    -8.2120 c3         1 QZD      -0.084400
      8 C06        -10.5880   -10.0530    -6.9720 c3         1 QZD      -0.058700
      9 C07         -9.1980    -9.4380    -6.6950 c3         1 QZD      -0.091100
     10 C08        -11.4790    -9.9860    -5.7090 c3         1 QZD      -0.091100
     11 C09        -13.1970    -9.2400    -9.8800 c          1 QZD       0.583100
     12 C11        -14.7970    -7.4000   -10.5340 c3         1 QZD       0.103700
     13 C13        -16.8400    -8.9410    -9.9290 c5         1 QZD      -0.157700
     14 C17        -16.7220    -9.8950   -11.1510 c5         1 QZD      -0.092400
     15 C19        -14.2840    -5.9420   -10.6710 c3         1 QZD       0.150600
     16 C23        -13.9720   -14.6680    -9.5490 c6         1 QZD       0.156000
     17 C24        -13.0220   -15.8200   -10.0270 c3         1 QZD      -0.063400
     18 C25        -11.8590   -16.1970    -9.0770 c3         1 QZD      -0.087100
     19 C26        -14.7270   -15.0610    -8.2340 c6         1 QZD       0.121600
     20 C28        -16.6700   -15.7630    -9.4780 c6         1 QZD       0.358600
     21 C30        -15.0570   -14.3980   -10.6440 c6         1 QZD       0.121600
     22 N03        -12.4890   -11.4290    -8.9530 ns         1 QZD      -0.469900
     23 N10        -13.9810    -8.1490    -9.5680 ns         1 QZD      -0.498900
     24 O01        -14.6920   -11.9860    -8.6980 o          1 QZD      -0.557000
     25 O20        -14.9820    -5.2410   -11.7120 oh         1 QZD      -0.656000
     26 O21        -13.0060    -9.5940   -11.0370 o          1 QZD      -0.606100
     27 O22        -13.1000   -13.5200    -9.3630 os         1 QZD      -0.463100
     28 O27        -15.6760   -16.1230    -8.4970 os         1 QZD      -0.460500
     29 O29        -15.9850   -15.5070   -10.7210 os         1 QZD      -0.460500
     30 H1         -16.4620    -6.9090    -9.2380 hc         1 QZD       0.065700
     31 H2         -16.8920    -7.0070   -10.9330 hc         1 QZD       0.065700
     32 H3         -19.7850   -10.3730   -10.1240 hn         1 QZD       0.324500
     33 H4         -18.1250   -11.5270   -11.6680 h1         1 QZD       0.042700
     34 H5         -17.3430   -11.7200   -10.0780 h1         1 QZD       0.042700
     35 H6         -13.3330    -9.8720    -7.8320 h1         1 QZD       0.079700
     36 H7         -10.5570    -9.4470    -9.0610 hc         1 QZD       0.056200
     37 H8         -11.3900    -8.3180    -8.0070 hc         1 QZD       0.056200
     38 H9         -10.4240   -11.1140    -7.2010 hc         1 QZD       0.050700
     39 H10         -8.7080    -9.9470    -5.8560 hc         1 QZD       0.036033
     40 H11         -8.5470    -9.5360    -7.5730 hc         1 QZD       0.036033
     41 H12         -9.2830    -8.3730    -6.4480 hc         1 QZD       0.036033
     42 H13        -10.9610   -10.4240    -4.8470 hc         1 QZD       0.036033
     43 H14        -11.7320    -8.9480    -5.4630 hc         1 QZD       0.036033
     44 H15        -12.4110   -10.5460    -5.8500 hc         1 QZD       0.036033
     45 H16        -14.6840    -7.8670   -11.5220 h1         1 QZD       0.093700
     46 H17        -16.3200    -9.4090    -9.0850 hc         1 QZD       0.092700
     47 H18        -15.7150   -10.3050   -11.2890 hc         1 QZD       0.064200
     48 H19        -17.0040    -9.3890   -12.0820 hc         1 QZD       0.064200
     49 H20        -13.2090    -5.9660   -10.8950 h1         1 QZD       0.022200
     50 H21        -14.4120    -5.4230    -9.7120 h1         1 QZD       0.022200
     51 H22        -13.6060   -16.7280   -10.2190 hc         1 QZD       0.061700
     52 H23        -12.5850   -15.5440   -10.9950 hc         1 QZD       0.061700
     53 H24        -11.2290   -16.9650    -9.5400 hc         1 QZD       0.037367
     54 H25        -11.2270   -15.3280    -8.8610 hc         1 QZD       0.037367
     55 H26        -12.2340   -16.6000    -8.1300 hc         1 QZD       0.037367
     56 H27        -15.2770   -14.2030    -7.8240 h1         1 QZD       0.071200
     57 H28        -14.0180   -15.3920    -7.4630 h1         1 QZD       0.071200
     58 H29        -17.2290   -14.8720    -9.1540 h2         1 QZD       0.058200
     59 H30        -17.3790   -16.5940    -9.6100 h2         1 QZD       0.058200
     60 H31        -14.5790   -14.2610   -11.6240 h1         1 QZD       0.071200
     61 H32        -15.6250   -13.4850   -10.4210 h1         1 QZD       0.071200
     62 H33        -11.5950   -11.8100    -9.2360 hn         1 QZD       0.334500
     63 H34        -14.0740    -7.9190    -8.5850 hn         1 QZD       0.314500
     64 H35        -14.6060    -4.3330   -11.7490 ho         1 QZD       0.448000
     65 O18        -19.0790    -8.1310    -9.1760 o          1 QZD      -0.562000
@<TRIPOS>BOND
     1     1    12 1   
     2     1    13 1   
     3     1    30 1   
     4     1    31 1   
     5     2     3 1   
     6     2    13 1   
     7     2    65 2   
     8     3     4 1   
     9     3    32 1   
    10     4    14 1   
    11     4    33 1   
    12     4    34 1   
    13     5    22 1   
    14     5    24 2   
    15     5    27 1   
    16     6     7 1   
    17     6    11 1   
    18     6    22 1   
    19     6    35 1   
    20     7     8 1   
    21     7    36 1   
    22     7    37 1   
    23     8     9 1   
    24     8    10 1   
    25     8    38 1   
    26     9    39 1   
    27     9    40 1   
    28     9    41 1   
    29    10    42 1   
    30    10    43 1   
    31    10    44 1   
    32    11    23 1   
    33    11    26 2   
    34    12    15 1   
    35    12    23 1   
    36    12    45 1   
    37    13    14 1   
    38    13    46 1   
    39    14    47 1   
    40    14    48 1   
    41    15    25 1   
    42    15    49 1   
    43    15    50 1   
    44    16    17 1   
    45    16    19 1   
    46    16    21 1   
    47    16    27 1   
    48    17    18 1   
    49    17    51 1   
    50    17    52 1   
    51    18    53 1   
    52    18    54 1   
    53    18    55 1   
    54    19    28 1   
    55    19    56 1   
    56    19    57 1   
    57    20    28 1   
    58    20    29 1   
    59    20    58 1   
    60    20    59 1   
    61    21    29 1   
    62    21    60 1   
    63    21    61 1   
    64    22    62 1   
    65    23    63 1   
    66    25    64 1   
@<TRIPOS>SUBSTRUCTURE
     1 QZD         1 TEMP              0 ****  ****    0 ROOT
