@<TRIPOS>MOLECULE
QZD
   65    66     1     0     0
SMALL
bcc


@<TRIPOS>ATOM
      1 C12        -16.3630    -7.8850   -10.0330 c3         1 QZD      -0.070400
      2 C14        -18.2810    -9.5140    -9.7960 c          1 QZD       0.706500
      3 N15        -18.7420   -10.4720   -10.6160 ns         1 QZD      -0.580900
      4 C16        -17.7350   -11.0840   -11.4540 c5         1 QZD       0.099000
      5 C02        -13.4640   -12.2250    -8.6680 c          1 QZD       0.762100
      6 C04        -12.5090   -10.0280    -8.4200 c3         1 QZD       0.045700
      7 C05        -11.1390    -9.3620    -8.3060 c3         1 QZD      -0.084400
      8 C06        -10.2620    -9.8680    -7.1570 c3         1 QZD      -0.058700
      9 C07         -8.9430    -9.1010    -7.1550 c3         1 QZD      -0.091100
     10 C08        -10.9580    -9.7530    -5.8060 c3         1 QZD      -0.091100
     11 C09        -13.2520    -9.4370    -9.6230 c          1 QZD       0.650100
     12 C11        -14.8700    -7.6960   -10.2990 c3         1 QZD       0.103700
     13 C13        -16.7970    -9.3410   -10.0780 c5         1 QZD      -0.157700
     14 C17        -16.6080   -10.0480   -11.4210 c5         1 QZD      -0.092400
     15 C19        -14.4510    -6.2300   -10.2710 c3         1 QZD       0.127400
     16 C23        -14.0980   -14.4720    -9.4020 c6         1 QZD       0.132800
     17 C24        -13.2390   -15.6570    -9.8550 c3         1 QZD      -0.063400
     18 C25        -12.4110   -16.3240    -8.7640 c3         1 QZD      -0.087100
     19 C26        -15.0200   -14.8400    -8.2310 c6         1 QZD       0.098400
     20 C28        -16.7390   -15.2530    -9.7240 c6         1 QZD       0.312200
     21 C30        -14.9790   -13.9950   -10.5690 c6         1 QZD       0.098400
     22 N03        -12.3630   -11.4510    -8.5810 ns         1 QZD      -0.536900
     23 N10        -14.0770    -8.4220    -9.3280 ns         1 QZD      -0.565900
     24 O01        -14.5840   -11.8310    -8.4160 o          1 QZD      -0.606000
     25 O20        -15.1540    -5.5400   -11.2760 oh         1 QZD      -0.593800
     26 O21        -13.0490    -9.8570   -10.7510 o          1 QZD      -0.606100
     27 O22        -13.1380   -13.4670    -9.0390 os         1 QZD      -0.439900
     28 O27        -15.9720   -15.7830    -8.6850 os         1 QZD      -0.414100
     29 O29        -15.9630   -14.9710   -10.8500 os         1 QZD      -0.414100
     30 H1         -16.6120    -7.4590    -9.0550 hc         1 QZD       0.065700
     31 H2         -16.9250    -7.3150   -10.7760 hc         1 QZD       0.065700
     32 H3         -19.6780   -10.8390   -10.5370 hn         1 QZD       0.324500
     33 H4         -18.1130   -11.2630   -12.4600 h1         1 QZD       0.042700
     34 H5         -17.4150   -12.0470   -11.0450 h1         1 QZD       0.042700
     35 H6         -13.0770    -9.8290    -7.5080 h1         1 QZD       0.079700
     36 H7         -10.6010    -9.4850    -9.2520 hc         1 QZD       0.056200
     37 H8         -11.3000    -8.2860    -8.1810 hc         1 QZD       0.056200
     38 H9         -10.0310   -10.9250    -7.3330 hc         1 QZD       0.050700
     39 H10         -8.2710    -9.4810    -6.3840 hc         1 QZD       0.036033
     40 H11         -8.4280    -9.1830    -8.1130 hc         1 QZD       0.036033
     41 H12         -9.1080    -8.0390    -6.9560 hc         1 QZD       0.036033
     42 H13        -10.2830   -10.0420    -4.9990 hc         1 QZD       0.036033
     43 H14        -11.2790    -8.7260    -5.6170 hc         1 QZD       0.036033
     44 H15        -11.8350   -10.3970    -5.7390 hc         1 QZD       0.036033
     45 H16        -14.6210    -8.1080   -11.2790 h1         1 QZD       0.093700
     46 H17        -16.2680    -9.9040    -9.2980 hc         1 QZD       0.092700
     47 H18        -15.6250   -10.5000   -11.5290 hc         1 QZD       0.064200
     48 H19        -16.7400    -9.3350   -12.2390 hc         1 QZD       0.064200
     49 H20        -13.3660    -6.1760   -10.4250 h1         1 QZD       0.022200
     50 H21        -14.6570    -5.8180    -9.2740 h1         1 QZD       0.022200
     51 H22        -13.8820   -16.4010   -10.3250 hc         1 QZD       0.061700
     52 H23        -12.5770   -15.2950   -10.6460 hc         1 QZD       0.061700
     53 H24        -11.7230   -17.0410    -9.2110 hc         1 QZD       0.037367
     54 H25        -11.8140   -15.6060    -8.2010 hc         1 QZD       0.037367
     55 H26        -13.0310   -16.8750    -8.0560 hc         1 QZD       0.037367
     56 H27        -15.5290   -13.9530    -7.8410 h1         1 QZD       0.071200
     57 H28        -14.4620   -15.2960    -7.4120 h1         1 QZD       0.071200
     58 H29        -17.2560   -14.3400    -9.3830 h2         1 QZD       0.058200
     59 H30        -17.4740   -16.0040   -10.0110 h2         1 QZD       0.058200
     60 H31        -14.3800   -13.8610   -11.4720 h1         1 QZD       0.071200
     61 H32        -15.4560   -13.0390   -10.3280 h1         1 QZD       0.071200
     62 H33        -11.5020   -11.7990    -8.9740 hn         1 QZD       0.334500
     63 H34        -14.2100    -8.1840    -8.3560 hn         1 QZD       0.314500
     64 H35        -14.9340    -4.6060   -11.2110 ho         1 QZD       0.409000
     65 O18        -18.9350    -8.9020    -8.9660 o          1 QZD      -0.637500
@<TRIPOS>BOND
     1     1    12 1   
     2     1    13 1   
     3     1    30 1   
     4     1    31 1   
     5     2     3 1   
     6     2    13 1   
     7     2    65 2   
     8     3     4 1   
     9     3    32 1   
    10     4    14 1   
    11     4    33 1   
    12     4    34 1   
    13     5    22 1   
    14     5    24 2   
    15     5    27 1   
    16     6     7 1   
    17     6    11 1   
    18     6    22 1   
    19     6    35 1   
    20     7     8 1   
    21     7    36 1   
    22     7    37 1   
    23     8     9 1   
    24     8    10 1   
    25     8    38 1   
    26     9    39 1   
    27     9    40 1   
    28     9    41 1   
    29    10    42 1   
    30    10    43 1   
    31    10    44 1   
    32    11    23 1   
    33    11    26 2   
    34    12    15 1   
    35    12    23 1   
    36    12    45 1   
    37    13    14 1   
    38    13    46 1   
    39    14    47 1   
    40    14    48 1   
    41    15    25 1   
    42    15    49 1   
    43    15    50 1   
    44    16    17 1   
    45    16    19 1   
    46    16    21 1   
    47    16    27 1   
    48    17    18 1   
    49    17    51 1   
    50    17    52 1   
    51    18    53 1   
    52    18    54 1   
    53    18    55 1   
    54    19    28 1   
    55    19    56 1   
    56    19    57 1   
    57    20    28 1   
    58    20    29 1   
    59    20    58 1   
    60    20    59 1   
    61    21    29 1   
    62    21    60 1   
    63    21    61 1   
    64    22    62 1   
    65    23    63 1   
    66    25    64 1   
@<TRIPOS>SUBSTRUCTURE
     1 QZD         1 TEMP              0 ****  ****    0 ROOT
