@<TRIPOS>MOLECULE
QZE
   46    50     1     0     0
SMALL
bcc


@<TRIPOS>ATOM
      1 C14          2.9380     3.0150     0.2820 cg         1 QZE       0.233500
      2 C1          -4.6940     1.9970    -0.7980 ca         1 QZE      -0.138000
      3 C2          -5.0870     0.6920    -0.5520 ca         1 QZE      -0.111000
      4 C6          -3.3670     2.3530    -0.6470 ca         1 QZE      -0.115000
      5 C17          3.2390     0.0260     1.0740 ca         1 QZE      -0.131000
      6 C21          2.6140    -0.5420    -1.1750 ca         1 QZE      -0.131000
      7 C18          4.2620    -0.9080     1.0200 ca         1 QZE      -0.108500
      8 C20          3.6490    -1.4630    -1.2250 ca         1 QZE      -0.108500
      9 C31         -5.6870    -2.0170     0.9290 cc         1 QZE      -0.130300
     10 C28         -4.2650    -2.8590    -0.5150 cd         1 QZE       0.323200
     11 C3          -4.1680    -0.2800    -0.1520 ca         1 QZE       0.004000
     12 C27         -4.6570    -1.6450     0.0890 cd         1 QZE      -0.226300
     13 C16          2.4040     0.2130    -0.0240 ca         1 QZE      -0.137800
     14 C5          -2.4330     1.4030    -0.2340 ca         1 QZE      -0.074800
     15 C19          4.4840    -1.6630    -0.1280 ca         1 QZE      -0.111600
     16 C4          -2.8260     0.0770     0.0120 ca         1 QZE      -0.023300
     17 C10          1.6030     2.5430     0.2000 cc         1 QZE      -0.142900
     18 C9           1.3070     1.2020     0.0330 cd         1 QZE       0.162800
     19 C7          -1.0210     1.7510    -0.0490 cc         1 QZE       0.123400
     20 C8          -0.0360     0.7890    -0.0840 cd         1 QZE      -0.164200
     21 C11          0.5790     3.5540     0.2750 c          1 QZE       0.712700
     22 C22          5.6110    -2.6890    -0.1820 c          1 QZE       0.922200
     23 C26         -1.7740    -0.8790     0.4990 c6         1 QZE      -0.044100
     24 C25         -0.4540    -0.6470    -0.2200 c6         1 QZE      -0.017200
     25 N15          4.0150     3.4250     0.3420 n1         1 QZE      -0.373800
     26 N30         -5.8340    -3.3420     0.7900 na         1 QZE      -0.006600
     27 N29         -4.9860    -3.8740    -0.0820 nc         1 QZE      -0.520800
     28 N13         -0.6960     3.0500     0.1370 ns         1 QZE      -0.427100
     29 O12          0.7750     4.7490     0.4420 o          1 QZE      -0.640500
     30 O23          6.2940    -2.8180     0.8510 o          1 QZE      -0.819300
     31 O24          5.7480    -3.3080    -1.2540 o          1 QZE      -0.819300
     32 H1          -5.4190     2.7310    -1.1240 ha         1 QZE       0.131000
     33 H2          -6.1230     0.4100    -0.6910 ha         1 QZE       0.129000
     34 H6          -3.0740     3.3680    -0.8850 ha         1 QZE       0.131000
     35 H17          3.0790     0.5980     1.9800 ha         1 QZE       0.112500
     36 H18          4.8970    -1.0540     1.8830 ha         1 QZE       0.151500
     37 H21          1.9750    -0.4020    -2.0390 ha         1 QZE       0.112500
     38 H20          3.8090    -2.0360    -2.1280 ha         1 QZE       0.151500
     39 H31         -6.2980    -1.4380     1.6030 h4         1 QZE       0.172000
     40 H30         -6.4980    -3.9310     1.2680 hn         1 QZE       0.318700
     41 H28         -3.4970    -3.0100    -1.2600 h4         1 QZE       0.046100
     42 H261        -1.6310    -0.7290     1.5750 hc         1 QZE       0.062200
     43 H262        -2.0840    -1.9130     0.3710 hc         1 QZE       0.062200
     44 H13         -1.4360     3.7340     0.2210 hn         1 QZE       0.320500
     45 H251        -0.5560    -0.9190    -1.2760 hc         1 QZE       0.069700
     46 H252         0.3080    -1.3030     0.1980 hc         1 QZE       0.069700
@<TRIPOS>BOND
     1     1    17 1   
     2     1    25 3   
     3     2     3 ar  
     4     2     4 ar  
     5     2    32 1   
     6     3    11 ar  
     7     3    33 1   
     8     4    14 ar  
     9     4    34 1   
    10     5     7 ar  
    11     5    13 ar  
    12     5    35 1   
    13     6     8 ar  
    14     6    13 ar  
    15     6    37 1   
    16     7    15 ar  
    17     7    36 1   
    18     8    15 ar  
    19     8    38 1   
    20     9    12 2   
    21     9    26 1   
    22     9    39 1   
    23    10    12 1   
    24    10    27 2   
    25    10    41 1   
    26    11    12 1   
    27    11    16 ar  
    28    13    18 1   
    29    14    16 ar  
    30    14    19 1   
    31    15    22 1   
    32    16    23 1   
    33    17    18 2   
    34    17    21 1   
    35    18    20 1   
    36    19    20 2   
    37    19    28 1   
    38    20    24 1   
    39    21    28 1   
    40    21    29 2   
    41    22    30 1   
    42    22    31 1   
    43    23    24 1   
    44    23    42 1   
    45    23    43 1   
    46    24    45 1   
    47    24    46 1   
    48    26    27 1   
    49    26    40 1   
    50    28    44 1   
@<TRIPOS>SUBSTRUCTURE
     1 QZE         1 TEMP              0 ****  ****    0 ROOT
