@<TRIPOS>MOLECULE
QZE
   46    50     1     0     0
SMALL
No Charge or Current Charge


@<TRIPOS>ATOM
      1 C14          2.9510     3.1390     0.2240 cg         1 QZE       0.322700
      2 C1          -4.7560     2.0190    -0.5560 ca         1 QZE      -0.120000
      3 C2          -5.1540     0.6980    -0.3220 ca         1 QZE      -0.093000
      4 C6          -3.4040     2.3690    -0.4830 ca         1 QZE      -0.097000
      5 C17          3.4840     0.2050     0.9160 ca         1 QZE      -0.113000
      6 C21          2.5220    -0.7370    -1.0950 ca         1 QZE      -0.113000
      7 C18          4.5120    -0.7520     0.8740 ca         1 QZE      -0.090500
      8 C20          3.5490    -1.6950    -1.1410 ca         1 QZE      -0.090500
      9 C31         -5.9940    -2.0270     0.5040 cc         1 QZE      -0.163000
     10 C28         -4.1280    -2.8950    -0.3380 cd         1 QZE       0.257900
     11 C3          -4.2090    -0.3060    -0.0240 ca         1 QZE       0.004000
     12 C27         -4.7190    -1.6900     0.1270 cd         1 QZE      -0.161000
     13 C16          2.4720     0.2270    -0.0680 ca         1 QZE      -0.137800
     14 C5          -2.4310     1.4060    -0.1410 ca         1 QZE      -0.074800
     15 C19          4.5620    -1.7180    -0.1560 ca         1 QZE      -0.111600
     16 C4          -2.8350     0.0660     0.0980 ca         1 QZE      -0.023300
     17 C10          1.6390     2.5900     0.1770 cc         1 QZE      -0.142900
     18 C9           1.3760     1.2340    -0.0370 cd         1 QZE       0.162800
     19 C7          -1.0080     1.7940    -0.0300 cc         1 QZE       0.123400
     20 C8          -0.0260     0.8170    -0.0860 cd         1 QZE      -0.164200
     21 C11          0.5730     3.6100     0.2690 c          1 QZE       0.570200
     22 C22          5.6750    -2.7540    -0.2030 c          1 QZE       0.711600
     23 C26         -1.7440    -0.8790     0.6110 c6         1 QZE      -0.044100
     24 C25         -0.4250    -0.6520    -0.1450 c6         1 QZE      -0.017200
     25 N15          4.0310     3.5830     0.2360 n1         1 QZE      -0.463000
     26 N30         -6.0520    -3.4100     0.3550 na         1 QZE      -0.006200
     27 N29         -4.9010    -3.9540    -0.1830 nc         1 QZE      -0.520800
     28 N13         -0.6870     3.1170     0.1410 ns         1 QZE      -0.360100
     29 O12          0.7500     4.8090     0.4370 o          1 QZE      -0.565000
     30 O23          6.5300    -2.7360     0.6710 o          1 QZE      -0.714000
     31 O24          5.6780    -3.5710    -1.1140 o          1 QZE      -0.714000
     32 H1          -5.4990     2.7720    -0.8110 ha         1 QZE       0.113000
     33 H2          -6.2070     0.4510    -0.4170 ha         1 QZE       0.111000
     34 H6          -3.1270     3.3990    -0.6930 ha         1 QZE       0.113000
     35 H17          3.4640     0.9130     1.7410 ha         1 QZE       0.094500
     36 H18          5.2710    -0.7430     1.6540 ha         1 QZE       0.133500
     37 H21          1.7710    -0.7340    -1.8820 ha         1 QZE       0.094500
     38 H20          3.5570    -2.4190    -1.9530 ha         1 QZE       0.133500
     39 H31         -6.8280    -1.4340     0.8600 h4         1 QZE       0.154000
     40 H30         -6.8550    -3.9980     0.5800 hn         1 QZE       0.369000
     41 H28         -3.1700    -3.0280    -0.8240 h4         1 QZE       0.046100
     42 H261        -1.5800    -0.6680     1.6760 hc         1 QZE       0.062200
     43 H262        -2.0080    -1.9360     0.5730 hc         1 QZE       0.062200
     44 H13         -1.4250     3.8040     0.2080 hn         1 QZE       0.320500
     45 H251        -0.5410    -0.9760    -1.1890 hc         1 QZE       0.069700
     46 H252         0.3360    -1.3020     0.3070 hc         1 QZE       0.069700
@<TRIPOS>BOND
     1     1    17 1   
     2     1    25 3   
     3     2     3 ar  
     4     2     4 ar  
     5     2    32 1   
     6     3    11 ar  
     7     3    33 1   
     8     4    14 ar  
     9     4    34 1   
    10     5     7 ar  
    11     5    13 ar  
    12     5    35 1   
    13     6     8 ar  
    14     6    13 ar  
    15     6    37 1   
    16     7    15 ar  
    17     7    36 1   
    18     8    15 ar  
    19     8    38 1   
    20     9    12 2   
    21     9    26 1   
    22     9    39 1   
    23    10    12 1   
    24    10    27 2   
    25    10    41 1   
    26    11    12 1   
    27    11    16 ar  
    28    13    18 1   
    29    14    16 ar  
    30    14    19 1   
    31    15    22 1   
    32    16    23 1   
    33    17    18 2   
    34    17    21 1   
    35    18    20 1   
    36    19    20 2   
    37    19    28 1   
    38    20    24 1   
    39    21    28 1   
    40    21    29 2   
    41    22    30 1   
    42    22    31 1   
    43    23    24 1   
    44    23    42 1   
    45    23    43 1   
    46    24    45 1   
    47    24    46 1   
    48    26    27 1   
    49    26    40 1   
    50    28    44 1   
@<TRIPOS>SUBSTRUCTURE
     1 QZE         1 TEMP              0 ****  ****    0 ROOT
