@<TRIPOS>MOLECULE
QZF
   41    45     1     0     0
SMALL
No Charge or Current Charge


@<TRIPOS>ATOM
      1 C18        -45.2150   -26.0250     0.6560 cy         1 QZF      -0.064900
      2 N1         -45.5070   -28.3880     3.0150 nh         1 QZF      -0.748300
      3 C16        -43.2630   -26.7780     0.2560 cy         1 QZF      -0.064900
      4 C17        -44.2850   -25.9630    -0.5940 cy         1 QZF      -0.094400
      5 C15        -44.4830   -27.3640     1.0600 cy         1 QZF      -0.103000
      6 C14        -44.3110   -27.6420     2.5740 c5         1 QZF       0.233800
      7 C13        -44.5480   -30.3300     5.8630 ca         1 QZF       0.182900
      8 C12        -46.7680   -29.9540     6.1590 ca         1 QZF       0.193500
      9 C11        -48.7020   -27.7130     3.9180 ca         1 QZF      -0.063000
     10 C10        -50.0680   -27.3730     4.0510 ca         1 QZF      -0.138000
     11 C9         -50.8560   -27.9310     5.0880 ca         1 QZF      -0.102000
     12 C8         -50.2850   -28.8250     6.0190 ca         1 QZF      -0.144000
     13 C7         -48.9350   -29.1460     5.8530 ca         1 QZF      -0.031200
     14 C6         -48.1480   -28.6390     4.8260 cp         1 QZF      -0.026000
     15 C5         -46.7970   -29.1730     5.0000 cp         1 QZF      -0.244000
     16 C4         -45.6010   -29.0360     4.2610 ca         1 QZF       0.444900
     17 C3         -46.1930   -28.9320     1.8100 c5         1 QZF       0.193800
     18 C2         -45.1060   -28.7650     0.6880 c5         1 QZF       0.061000
     19 C1         -45.7940   -28.8070    -0.7380 c          1 QZF       0.723000
     20 O1         -45.1290   -29.1400    -1.7130 o          1 QZF      -0.703000
     21 F1         -44.1530   -29.8050     0.7750 f          1 QZF      -0.282000
     22 N2         -48.0850   -29.9380     6.6340 na         1 QZF      -0.340300
     23 N3         -45.6530   -30.5430     6.6130 nb         1 QZF      -0.281000
     24 N4         -44.4680   -29.6170     4.7150 nb         1 QZF      -0.308000
     25 H15        -46.2880   -26.1020     0.4510 hc         1 QZF       0.051950
     26 H16        -45.0630   -25.2000     1.3620 hc         1 QZF       0.051950
     27 H12        -42.5870   -26.1570     0.8560 hc         1 QZF       0.051950
     28 H11        -42.6600   -27.5070    -0.2950 hc         1 QZF       0.051950
     29 H13        -43.9600   -24.9600    -0.8930 hc         1 QZF       0.050200
     30 H14        -44.6650   -26.4770    -1.4820 hc         1 QZF       0.050200
     31 H10        -44.2000   -26.7140     3.1520 h1         1 QZF       0.053700
     32 H9         -43.4000   -28.2290     2.7600 h1         1 QZF       0.053700
     33 H8         -43.6270   -30.7920     6.2130 h5         1 QZF       0.031100
     34 H6         -48.0930   -27.2490     3.1500 ha         1 QZF       0.139000
     35 H5         -50.5150   -26.6650     3.3570 ha         1 QZF       0.113000
     36 H4         -51.9040   -27.6530     5.1800 ha         1 QZF       0.102000
     37 H3         -50.8690   -29.2390     6.8370 ha         1 QZF       0.104000
     38 H2         -47.1020   -28.3610     1.5870 h1         1 QZF       0.075700
     39 H1         -46.4800   -29.9860     1.9310 h1         1 QZF       0.075700
     40 H7         -48.3810   -30.4400     7.4630 hn         1 QZF       0.353000
     41 O2         -46.9930   -28.5790    -0.8510 o          1 QZF      -0.703000
@<TRIPOS>BOND
     1     1     4 1   
     2     1     5 1   
     3     1    25 1   
     4     1    26 1   
     5     2     6 1   
     6     2    16 1   
     7     2    17 1   
     8     3     4 1   
     9     3     5 1   
    10     3    27 1   
    11     3    28 1   
    12     4    29 1   
    13     4    30 1   
    14     5     6 1   
    15     5    18 1   
    16     6    31 1   
    17     6    32 1   
    18     7    23 ar  
    19     7    24 ar  
    20     7    33 1   
    21     8    15 ar  
    22     8    22 1   
    23     8    23 ar  
    24     9    10 ar  
    25     9    14 ar  
    26     9    34 1   
    27    10    11 ar  
    28    10    35 1   
    29    11    12 ar  
    30    11    36 1   
    31    12    13 ar  
    32    12    37 1   
    33    13    14 ar  
    34    13    22 1   
    35    14    15 1   
    36    15    16 ar  
    37    16    24 ar  
    38    17    18 1   
    39    17    38 1   
    40    17    39 1   
    41    18    19 1   
    42    18    21 1   
    43    19    20 1   
    44    19    41 1   
    45    22    40 1   
@<TRIPOS>SUBSTRUCTURE
     1 QZF         1 TEMP              0 ****  ****    0 ROOT
