@<TRIPOS>MOLECULE
QZF
   41    45     1     0     0
SMALL
abcg2


@<TRIPOS>ATOM
      1 C18        -44.5480   -25.9860     0.6770 cy         1 QZF      -0.064900
      2 N1         -45.4420   -28.1430     3.0180 nh         1 QZF      -0.748300
      3 C16        -43.2230   -27.5630    -0.0120 cy         1 QZF      -0.064900
      4 C17        -43.6530   -26.1840    -0.5710 cy         1 QZF      -0.094400
      5 C15        -44.3870   -27.5010     1.0030 cy         1 QZF      -0.103000
      6 C14        -44.1100   -27.8840     2.4510 c5         1 QZF       0.233800
      7 C13        -44.4560   -29.4380     6.1270 ca         1 QZF       0.182900
      8 C12        -46.6690   -29.6040     6.1560 ca         1 QZF       0.193500
      9 C11        -49.0730   -28.1160     3.7890 ca         1 QZF      -0.063000
     10 C10        -50.4510   -28.1380     3.9580 ca         1 QZF      -0.138000
     11 C9         -51.0410   -28.7920     5.0460 ca         1 QZF      -0.102000
     12 C8         -50.2550   -29.4220     6.0000 ca         1 QZF      -0.144000
     13 C7         -48.8760   -29.3910     5.8270 ca         1 QZF      -0.031200
     14 C6         -48.2470   -28.7670     4.7130 cp         1 QZF      -0.026000
     15 C5         -46.8130   -28.9410     4.9110 cp         1 QZF      -0.244000
     16 C4         -45.5830   -28.6350     4.2660 ca         1 QZF       0.444900
     17 C3         -46.4430   -28.2500     1.9530 c5         1 QZF       0.193800
     18 C2         -45.6200   -28.3600     0.6810 c5         1 QZF       0.061000
     19 C1         -46.3880   -28.0330    -0.6280 c          1 QZF       0.723000
     20 O1         -46.0570   -28.6730    -1.6500 o          1 QZF      -0.703000
     21 F1         -45.1550   -29.7050     0.6120 f          1 QZF      -0.282000
     22 N2         -47.9000   -29.8980     6.6620 na         1 QZF      -0.340300
     23 N3         -45.5230   -29.8800     6.7870 nb         1 QZF      -0.281000
     24 N4         -44.4230   -28.8500     4.9390 nb         1 QZF      -0.308000
     25 H15        -45.5600   -25.6260     0.5110 hc         1 QZF       0.051950
     26 H16        -44.0650   -25.3770     1.4420 hc         1 QZF       0.051950
     27 H12        -42.2570   -27.5230     0.4950 hc         1 QZF       0.051950
     28 H11        -43.2280   -28.4080    -0.6980 hc         1 QZF       0.051950
     29 H13        -42.8640   -25.4510    -0.7300 hc         1 QZF       0.050200
     30 H14        -44.2380   -26.2790    -1.4850 hc         1 QZF       0.050200
     31 H10        -43.6000   -27.0910     2.9980 h1         1 QZF       0.053700
     32 H9         -43.4910   -28.7820     2.5070 h1         1 QZF       0.053700
     33 H8         -43.4950   -29.5850     6.6120 h5         1 QZF       0.031100
     34 H6         -48.6630   -27.5810     2.9490 ha         1 QZF       0.139000
     35 H5         -51.0790   -27.6330     3.2360 ha         1 QZF       0.113000
     36 H4         -52.1180   -28.7960     5.1530 ha         1 QZF       0.102000
     37 H3         -50.6920   -29.9130     6.8600 ha         1 QZF       0.104000
     38 H2         -47.0550   -27.3550     1.8830 h1         1 QZF       0.075700
     39 H1         -47.0800   -29.1210     2.0920 h1         1 QZF       0.075700
     40 H7         -48.0580   -30.3240     7.5610 hn         1 QZF       0.353000
     41 O2         -47.2610   -27.1370    -0.5380 o          1 QZF      -0.703000
@<TRIPOS>BOND
     1     1     4 1   
     2     1     5 1   
     3     1    25 1   
     4     1    26 1   
     5     2     6 1   
     6     2    16 1   
     7     2    17 1   
     8     3     4 1   
     9     3     5 1   
    10     3    27 1   
    11     3    28 1   
    12     4    29 1   
    13     4    30 1   
    14     5     6 1   
    15     5    18 1   
    16     6    31 1   
    17     6    32 1   
    18     7    23 ar  
    19     7    24 ar  
    20     7    33 1   
    21     8    15 ar  
    22     8    22 1   
    23     8    23 ar  
    24     9    10 ar  
    25     9    14 ar  
    26     9    34 1   
    27    10    11 ar  
    28    10    35 1   
    29    11    12 ar  
    30    11    36 1   
    31    12    13 ar  
    32    12    37 1   
    33    13    14 ar  
    34    13    22 1   
    35    14    15 1   
    36    15    16 ar  
    37    16    24 ar  
    38    17    18 1   
    39    17    38 1   
    40    17    39 1   
    41    18    19 1   
    42    18    21 1   
    43    19    20 1   
    44    19    41 1   
    45    22    40 1   
@<TRIPOS>SUBSTRUCTURE
     1 QZF         1 TEMP              0 ****  ****    0 ROOT
