@<TRIPOS>MOLECULE
QZG
   72    73     1     0     0
SMALL
abcg2


@<TRIPOS>ATOM
      1 C02        -13.2260   -12.2650    -8.1310 c          1 QZG       0.639100
      2 C04        -12.2860   -10.0460    -8.3140 c3         1 QZG       0.046700
      3 C05        -10.9180    -9.3780    -8.4500 c3         1 QZG      -0.083400
      4 C06         -9.9070    -9.7280    -7.3560 c3         1 QZG      -0.057700
      5 C07         -8.5890    -9.0140    -7.6400 c3         1 QZG      -0.090600
      6 C08        -10.4160    -9.3820    -5.9610 c3         1 QZG      -0.090600
      7 C09        -13.1680    -9.5960    -9.4820 c          1 QZG       0.580100
      8 C11        -14.9550    -8.0170   -10.1340 c3         1 QZG       0.104700
      9 C12        -16.4050    -8.3610    -9.7980 c3         1 QZG      -0.070400
     10 C13        -16.6920    -9.8540    -9.8370 c5         1 QZG      -0.157700
     11 C14        -18.1330   -10.1720    -9.4680 c          1 QZG       0.566000
     12 C16        -17.5630   -11.6410   -11.2110 c5         1 QZG       0.101000
     13 C17        -16.5220   -10.5190   -11.2050 c5         1 QZG      -0.094400
     14 C19        -14.6980    -6.5130   -10.1500 c3         1 QZG       0.150600
     15 C23        -14.0110   -14.5070    -8.3130 c6         1 QZG       0.198300
     16 C24        -14.9360   -14.4370    -9.5160 c6         1 QZG      -0.091900
     17 C25        -15.9740   -15.5540    -9.4730 c6         1 QZG      -0.070400
     18 C26        -15.3340   -16.9420    -9.3930 c6         1 QZG      -0.058700
     19 C27        -16.3770   -18.0710    -9.3520 c3         1 QZG      -0.055700
     20 C28        -17.3390   -18.0110   -10.5380 c3         1 QZG      -0.088100
     21 C29        -15.7220   -19.4510    -9.3040 c3         1 QZG      -0.088100
     22 C30        -14.3850   -16.9830    -8.1920 c6         1 QZG      -0.070400
     23 C31        -13.3450   -15.8670    -8.2260 c6         1 QZG      -0.091900
     24 N03        -12.1440   -11.4800    -8.3260 ns         1 QZG      -0.474900
     25 N10        -14.0440    -8.6250    -9.1870 ns         1 QZG      -0.497900
     26 N15        -18.5590   -11.1480   -10.2860 ns         1 QZG      -0.515900
     27 O01        -14.2960   -11.8560    -7.7290 o          1 QZG      -0.551000
     28 O18        -18.7820    -9.6450    -8.5790 o          1 QZG      -0.561000
     29 O21        -13.0230   -10.0820   -10.5920 o          1 QZG      -0.608100
     30 O22        -12.9540   -13.5380    -8.4130 os         1 QZG      -0.461100
     31 H1         -12.7420    -9.7440    -7.3680 h1         1 QZG       0.079700
     32 H2         -10.4990    -9.6390    -9.4270 hc         1 QZG       0.056200
     33 H3         -11.0740    -8.2950    -8.4600 hc         1 QZG       0.056200
     34 H4          -9.7160   -10.8060    -7.3910 hc         1 QZG       0.052700
     35 H5          -7.8320    -9.2750    -6.8990 hc         1 QZG       0.035367
     36 H6          -8.1950    -9.2750    -8.6240 hc         1 QZG       0.035367
     37 H7          -8.7190    -7.9290    -7.6120 hc         1 QZG       0.035367
     38 H8          -9.6510    -9.5860    -5.2100 hc         1 QZG       0.035367
     39 H9         -10.6750    -8.3230    -5.8880 hc         1 QZG       0.035367
     40 H10        -11.2980    -9.9610    -5.6850 hc         1 QZG       0.035367
     41 H11        -14.7030    -8.4170   -11.1180 h1         1 QZG       0.092700
     42 H12        -16.6460    -7.9660    -8.8060 hc         1 QZG       0.065200
     43 H13        -17.0600    -7.8500   -10.5080 hc         1 QZG       0.065200
     44 H14        -16.0610   -10.3670    -9.0990 hc         1 QZG       0.095700
     45 H15        -17.9920   -11.8110   -12.1980 h1         1 QZG       0.041200
     46 H16        -17.1410   -12.5910   -10.8660 h1         1 QZG       0.041200
     47 H17        -15.5140   -10.8890   -11.3760 hc         1 QZG       0.064700
     48 H18        -16.7480    -9.7990   -11.9970 hc         1 QZG       0.064700
     49 H19        -13.6330    -6.3460   -10.3500 h1         1 QZG       0.021700
     50 H20        -14.9080    -6.1020    -9.1520 h1         1 QZG       0.021700
     51 H21        -14.5830   -14.3250    -7.3980 h1         1 QZG       0.065700
     52 H22        -14.3390   -14.5260   -10.4310 hc         1 QZG       0.054450
     53 H23        -15.4380   -13.4670    -9.5540 hc         1 QZG       0.054450
     54 H24        -16.6340   -15.4130    -8.6070 hc         1 QZG       0.043700
     55 H25        -16.6100   -15.4670   -10.3550 hc         1 QZG       0.043700
     56 H26        -14.7290   -17.0820   -10.3010 hc         1 QZG       0.047700
     57 H27        -16.9670   -17.9450    -8.4350 hc         1 QZG       0.044700
     58 H28        -18.0220   -18.8620   -10.5200 hc         1 QZG       0.032533
     59 H29        -17.9480   -17.1080   -10.5380 hc         1 QZG       0.032533
     60 H30        -16.7940   -18.0450   -11.4860 hc         1 QZG       0.032533
     61 H31        -15.1280   -19.6020    -8.4030 hc         1 QZG       0.032533
     62 H32        -16.4760   -20.2390    -9.3300 hc         1 QZG       0.032533
     63 H33        -15.0610   -19.5980   -10.1630 hc         1 QZG       0.032533
     64 H34        -14.9750   -16.9100    -7.2690 hc         1 QZG       0.043700
     65 H35        -13.8600   -17.9380    -8.1450 hc         1 QZG       0.043700
     66 H36        -12.6920   -16.0050    -9.0950 hc         1 QZG       0.054450
     67 H37        -12.7120   -15.9200    -7.3380 hc         1 QZG       0.054450
     68 H38        -11.3570   -11.8720    -8.8210 hn         1 QZG       0.331500
     69 H39        -14.1300    -8.3460    -8.2210 hn         1 QZG       0.315500
     70 H40        -19.4590   -11.5860   -10.1720 hn         1 QZG       0.324500
     71 H41        -15.3710    -4.9750   -11.1140 ho         1 QZG       0.448000
     72 O20        -15.5120    -5.9250   -11.1360 oh         1 QZG      -0.656000
@<TRIPOS>BOND
     1     1    24 1   
     2     1    27 2   
     3     1    30 1   
     4     2     3 1   
     5     2     7 1   
     6     2    24 1   
     7     2    31 1   
     8     3     4 1   
     9     3    32 1   
    10     3    33 1   
    11     4     5 1   
    12     4     6 1   
    13     4    34 1   
    14     5    35 1   
    15     5    36 1   
    16     5    37 1   
    17     6    38 1   
    18     6    39 1   
    19     6    40 1   
    20     7    25 1   
    21     7    29 2   
    22     8     9 1   
    23     8    14 1   
    24     8    25 1   
    25     8    41 1   
    26     9    10 1   
    27     9    42 1   
    28     9    43 1   
    29    10    11 1   
    30    10    13 1   
    31    10    44 1   
    32    11    26 1   
    33    11    28 2   
    34    12    13 1   
    35    12    26 1   
    36    12    45 1   
    37    12    46 1   
    38    13    47 1   
    39    13    48 1   
    40    14    49 1   
    41    14    50 1   
    42    14    72 1   
    43    15    16 1   
    44    15    23 1   
    45    15    30 1   
    46    15    51 1   
    47    16    17 1   
    48    16    52 1   
    49    16    53 1   
    50    17    18 1   
    51    17    54 1   
    52    17    55 1   
    53    18    19 1   
    54    18    22 1   
    55    18    56 1   
    56    19    20 1   
    57    19    21 1   
    58    19    57 1   
    59    20    58 1   
    60    20    59 1   
    61    20    60 1   
    62    21    61 1   
    63    21    62 1   
    64    21    63 1   
    65    22    23 1   
    66    22    64 1   
    67    22    65 1   
    68    23    66 1   
    69    23    67 1   
    70    24    68 1   
    71    25    69 1   
    72    26    70 1   
    73    71    72 1   
@<TRIPOS>SUBSTRUCTURE
     1 QZG         1 TEMP              0 ****  ****    0 ROOT
