@<TRIPOS>MOLECULE
QZG
   72    73     1     0     0
SMALL
No Charge or Current Charge


@<TRIPOS>ATOM
      1 C02        -13.4320   -12.8920    -8.6030 c          1 QZG       0.639100
      2 C04        -13.2040   -10.3940    -8.9360 c3         1 QZG       0.046700
      3 C05        -11.9270    -9.8160    -8.2610 c3         1 QZG      -0.083400
      4 C06        -11.5470   -10.4250    -6.8810 c3         1 QZG      -0.057700
      5 C07        -10.1510    -9.9400    -6.4300 c3         1 QZG      -0.090600
      6 C08        -12.6030   -10.1280    -5.7890 c3         1 QZG      -0.090600
      7 C09        -13.6010    -9.5570   -10.1860 c          1 QZG       0.580100
      8 C11        -14.5730    -7.3470   -10.9240 c3         1 QZG       0.104700
      9 C12        -15.7510    -6.4950   -10.3800 c3         1 QZG      -0.070400
     10 C13        -16.9720    -7.3090    -9.8620 c5         1 QZG      -0.157700
     11 C14        -18.1480    -6.4370    -9.4030 c          1 QZG       0.566000
     12 C16        -19.0400    -8.4600   -10.2890 c5         1 QZG       0.101000
     13 C17        -17.6330    -8.2460   -10.9110 c5         1 QZG      -0.094400
     14 C19        -13.3770    -6.4930   -11.4300 c3         1 QZG       0.150600
     15 C23        -13.4300   -15.3220    -8.7620 c6         1 QZG       0.198300
     16 C24        -14.9360   -15.6060    -8.9970 c6         1 QZG      -0.091900
     17 C25        -15.3260   -17.0280    -8.5200 c6         1 QZG      -0.070400
     18 C26        -14.4660   -18.1400    -9.2010 c6         1 QZG      -0.058700
     19 C27        -14.8530   -19.5860    -8.7030 c3         1 QZG      -0.055700
     20 C28        -16.3560   -19.9220    -8.8860 c3         1 QZG      -0.088100
     21 C29        -14.0050   -20.7110    -9.3540 c3         1 QZG      -0.088100
     22 C30        -12.9510   -17.8250    -8.9920 c6         1 QZG      -0.070400
     23 C31        -12.5770   -16.3990    -9.4680 c6         1 QZG      -0.091900
     24 N03        -13.0090   -11.8090    -9.3190 ns         1 QZG      -0.474900
     25 N10        -14.1280    -8.3120    -9.9090 ns         1 QZG      -0.497900
     26 N15        -19.2800    -7.1390    -9.7130 ns         1 QZG      -0.515900
     27 O01        -14.0310   -12.8460    -7.5410 o          1 QZG      -0.551000
     28 O18        -18.1610    -5.2690    -9.0490 o          1 QZG      -0.561000
     29 O21        -13.4700    -9.9600   -11.3360 o          1 QZG      -0.608100
     30 O22        -13.0630   -14.0230    -9.2630 os         1 QZG      -0.461100
     31 H1         -14.0510   -10.3250    -8.2410 h1         1 QZG       0.079700
     32 H2         -11.0860    -9.9480    -8.9540 hc         1 QZG       0.056200
     33 H3         -12.0450    -8.7320    -8.1340 hc         1 QZG       0.056200
     34 H4         -11.4820   -11.5150    -6.9940 hc         1 QZG       0.052700
     35 H5          -9.8660   -10.4060    -5.4790 hc         1 QZG       0.035367
     36 H6          -9.3890   -10.2020    -7.1740 hc         1 QZG       0.035367
     37 H7         -10.1400    -8.8510    -6.2960 hc         1 QZG       0.035367
     38 H8         -12.2980   -10.5640    -4.8300 hc         1 QZG       0.035367
     39 H9         -12.7260    -9.0480    -5.6480 hc         1 QZG       0.035367
     40 H10        -13.5790   -10.5530    -6.0470 hc         1 QZG       0.035367
     41 H11        -14.9490    -7.9150   -11.7860 h1         1 QZG       0.092700
     42 H12        -15.3740    -5.8520    -9.5740 hc         1 QZG       0.065200
     43 H13        -16.0870    -5.8150   -11.1730 hc         1 QZG       0.065200
     44 H14        -16.6770    -7.9160    -8.9980 hc         1 QZG       0.095700
     45 H15        -19.7870    -8.7380   -11.0450 h1         1 QZG       0.041200
     46 H16        -19.0230    -9.2370    -9.5120 h1         1 QZG       0.041200
     47 H17        -17.0890    -9.1870   -11.0570 hc         1 QZG       0.064700
     48 H18        -17.7140    -7.7560   -11.8890 hc         1 QZG       0.064700
     49 H19        -12.5710    -7.1650   -11.7510 h1         1 QZG       0.021700
     50 H20        -12.9920    -5.8870   -10.5990 h1         1 QZG       0.021700
     51 H21        -13.2140   -15.3600    -7.6840 h1         1 QZG       0.065700
     52 H22        -15.1700   -15.4980   -10.0640 hc         1 QZG       0.054450
     53 H23        -15.5500   -14.8680    -8.4660 hc         1 QZG       0.054450
     54 H24        -15.2200   -17.0910    -7.4280 hc         1 QZG       0.043700
     55 H25        -16.3910   -17.1750    -8.7390 hc         1 QZG       0.043700
     56 H26        -14.6740   -18.1190   -10.2810 hc         1 QZG       0.047700
     57 H27        -14.6550   -19.6360    -7.6250 hc         1 QZG       0.044700
     58 H28        -16.5630   -20.9600    -8.6000 hc         1 QZG       0.032533
     59 H29        -16.9880   -19.2870    -8.2550 hc         1 QZG       0.032533
     60 H30        -16.6620   -19.7890    -9.9310 hc         1 QZG       0.032533
     61 H31        -12.9520   -20.6420    -9.0570 hc         1 QZG       0.032533
     62 H32        -14.3590   -21.7000    -9.0380 hc         1 QZG       0.032533
     63 H33        -14.0640   -20.6610   -10.4480 hc         1 QZG       0.032533
     64 H34        -12.6890   -17.9390    -7.9310 hc         1 QZG       0.043700
     65 H35        -12.3280   -18.5380    -9.5470 hc         1 QZG       0.043700
     66 H36        -12.7130   -16.3250   -10.5560 hc         1 QZG       0.054450
     67 H37        -11.5130   -16.2130    -9.2720 hc         1 QZG       0.054450
     68 H38        -12.5580   -12.0160   -10.2010 hn         1 QZG       0.331500
     69 H39        -14.2000    -8.0500    -8.9330 hn         1 QZG       0.315500
     70 H40        -20.1840    -6.7050    -9.5670 hn         1 QZG       0.324500
     71 H41        -12.9670    -5.1450   -12.7960 ho         1 QZG       0.448000
     72 O20        -13.7670    -5.6470   -12.5220 oh         1 QZG      -0.656000
@<TRIPOS>BOND
     1     1    24 1   
     2     1    27 2   
     3     1    30 1   
     4     2     3 1   
     5     2     7 1   
     6     2    24 1   
     7     2    31 1   
     8     3     4 1   
     9     3    32 1   
    10     3    33 1   
    11     4     5 1   
    12     4     6 1   
    13     4    34 1   
    14     5    35 1   
    15     5    36 1   
    16     5    37 1   
    17     6    38 1   
    18     6    39 1   
    19     6    40 1   
    20     7    25 1   
    21     7    29 2   
    22     8     9 1   
    23     8    14 1   
    24     8    25 1   
    25     8    41 1   
    26     9    10 1   
    27     9    42 1   
    28     9    43 1   
    29    10    11 1   
    30    10    13 1   
    31    10    44 1   
    32    11    26 1   
    33    11    28 2   
    34    12    13 1   
    35    12    26 1   
    36    12    45 1   
    37    12    46 1   
    38    13    47 1   
    39    13    48 1   
    40    14    49 1   
    41    14    50 1   
    42    14    72 1   
    43    15    16 1   
    44    15    23 1   
    45    15    30 1   
    46    15    51 1   
    47    16    17 1   
    48    16    52 1   
    49    16    53 1   
    50    17    18 1   
    51    17    54 1   
    52    17    55 1   
    53    18    19 1   
    54    18    22 1   
    55    18    56 1   
    56    19    20 1   
    57    19    21 1   
    58    19    57 1   
    59    20    58 1   
    60    20    59 1   
    61    20    60 1   
    62    21    61 1   
    63    21    62 1   
    64    21    63 1   
    65    22    23 1   
    66    22    64 1   
    67    22    65 1   
    68    23    66 1   
    69    23    67 1   
    70    24    68 1   
    71    25    69 1   
    72    26    70 1   
    73    71    72 1   
@<TRIPOS>SUBSTRUCTURE
     1 QZG         1 TEMP              0 ****  ****    0 ROOT
