@<TRIPOS>MOLECULE
QZI
   24    24     1     0     0
SMALL
No Charge or Current Charge


@<TRIPOS>ATOM
      1 C10          5.9920     7.7160    20.1780 ca         1 QZI       0.075000
      2 C11          3.7360     6.0380    20.3800 ca         1 QZI       0.128500
      3 C13          5.4770     7.3770    21.4460 ca         1 QZI       0.128500
      4 C15          4.3530     6.5330    21.5480 ca         1 QZI       0.089000
      5 C1           6.7350     6.6590    16.9480 c3         1 QZI       0.065000
      6 C2           6.0290     6.3290    15.5720 c          1 QZI       0.724000
      7 C4           7.1120     5.3710    17.7470 c3         1 QZI      -0.090600
      8 C5           8.0200     7.4680    16.6430 c3         1 QZI      -0.090600
      9 O6           5.1260     7.0580    15.1740 o          1 QZI      -0.703500
     10 O7           6.3620     5.3150    14.9690 o          1 QZI      -0.703500
     11 C8           5.3930     7.2030    19.0070 ca         1 QZI       0.221100
     12 C9           4.2490     6.3750    19.1090 ca         1 QZI       0.075000
     13 Cl12         3.4320     5.7730    17.6590 cl         1 QZI      -0.129000
     14 Cl14         7.3960     8.7880    20.0540 cl         1 QZI      -0.129000
     15 Cl16         2.3110     4.9940    20.5110 cl         1 QZI      -0.167500
     16 Cl17         6.2420     8.0130    22.9110 cl         1 QZI      -0.167500
     17 Cl18         3.7070     6.1050    23.1410 cl         1 QZI      -0.173000
     18 H21          7.5680     5.6160    18.7140 hc         1 QZI       0.033200
     19 H19          6.2350     4.7370    17.9210 hc         1 QZI       0.033200
     20 H20          7.8420     4.7730    17.1880 hc         1 QZI       0.033200
     21 H24          8.5700     7.7020    17.5620 hc         1 QZI       0.033200
     22 H23          8.6890     6.8990    15.9860 hc         1 QZI       0.033200
     23 H22          7.7750     8.4110    16.1390 hc         1 QZI       0.033200
     24 O3           5.9230     7.5580    17.7750 os         1 QZI      -0.350100
@<TRIPOS>BOND
     1     1     3 ar  
     2     1    11 ar  
     3     1    14 1   
     4     2     4 ar  
     5     2    12 ar  
     6     2    15 1   
     7     3     4 ar  
     8     3    16 1   
     9     4    17 1   
    10     5     6 1   
    11     5     7 1   
    12     5     8 1   
    13     5    24 1   
    14     6     9 1   
    15     6    10 1   
    16     7    18 1   
    17     7    19 1   
    18     7    20 1   
    19     8    21 1   
    20     8    22 1   
    21     8    23 1   
    22    11    12 ar  
    23    11    24 1   
    24    12    13 1   
@<TRIPOS>SUBSTRUCTURE
     1 QZI         1 TEMP              0 ****  ****    0 ROOT
