@<TRIPOS>MOLECULE
QZI
   24    24     1     0     0
SMALL
abcg2


@<TRIPOS>ATOM
      1 C10          5.9870     7.6630    20.1450 ca         1 QZI       0.075000
      2 C11          3.7540     6.0350    20.3580 ca         1 QZI       0.128500
      3 C13          5.4690     7.3610    21.3990 ca         1 QZI       0.128500
      4 C15          4.3560     6.5340    21.5090 ca         1 QZI       0.089000
      5 C1           6.7380     6.6390    16.9920 c3         1 QZI       0.065000
      6 C2           5.9940     6.3370    15.6550 c          1 QZI       0.724000
      7 C4           7.1320     5.3980    17.7690 c3         1 QZI      -0.090600
      8 C5           7.9730     7.4670    16.6560 c3         1 QZI      -0.090600
      9 O6           5.3950     7.2950    15.1380 o          1 QZI      -0.703500
     10 O7           6.1330     5.1890    15.1960 o          1 QZI      -0.703500
     11 C8           5.4000     7.1670    18.9770 ca         1 QZI       0.221100
     12 C9           4.2720     6.3530    19.1080 ca         1 QZI       0.075000
     13 CL12         3.5160     5.7660    17.6910 cl         1 QZI      -0.129000
     14 CL14         7.3540     8.6830    20.0040 cl         1 QZI      -0.129000
     15 CL16         2.3750     5.0320    20.4860 cl         1 QZI      -0.167500
     16 CL17         6.2040     7.9940    22.8070 cl         1 QZI      -0.167500
     17 CL18         3.7230     6.1430    23.0490 cl         1 QZI      -0.173000
     18 H21          7.6150     5.6520    18.7150 hc         1 QZI       0.033200
     19 H19          6.2950     4.7310    17.9730 hc         1 QZI       0.033200
     20 H20          7.8540     4.8320    17.1830 hc         1 QZI       0.033200
     21 H24          8.5790     7.6660    17.5400 hc         1 QZI       0.033200
     22 H23          8.5930     6.9270    15.9390 hc         1 QZI       0.033200
     23 H22          7.6940     8.4180    16.2030 hc         1 QZI       0.033200
     24 O3           5.8690     7.5280    17.7890 os         1 QZI      -0.350100
@<TRIPOS>BOND
     1     1     3 ar  
     2     1    11 ar  
     3     1    14 1   
     4     2     4 ar  
     5     2    12 ar  
     6     2    15 1   
     7     3     4 ar  
     8     3    16 1   
     9     4    17 1   
    10     5     6 1   
    11     5     7 1   
    12     5     8 1   
    13     5    24 1   
    14     6     9 1   
    15     6    10 1   
    16     7    18 1   
    17     7    19 1   
    18     7    20 1   
    19     8    21 1   
    20     8    22 1   
    21     8    23 1   
    22    11    12 ar  
    23    11    24 1   
    24    12    13 1   
@<TRIPOS>SUBSTRUCTURE
     1 QZI         1 TEMP              0 ****  ****    0 ROOT
