@<TRIPOS>MOLECULE
QZJ
   69    70     1     0     0
SMALL
No Charge or Current Charge


@<TRIPOS>ATOM
      1 C11        -14.7000    -7.3680   -10.9680 c3         1 QZJ       0.104700
      2 C12        -15.8690    -6.5170   -10.4040 c3         1 QZJ      -0.070400
      3 C13        -17.0730    -7.3340    -9.8500 c5         1 QZJ      -0.157700
      4 C14        -18.2430    -6.4650    -9.3710 c          1 QZJ       0.565000
      5 C02        -13.4730   -12.8840    -8.6220 c          1 QZJ       0.640100
      6 C04        -13.2670   -10.3890    -8.9840 c3         1 QZJ       0.046700
      7 C05        -11.9770    -9.7970    -8.3450 c3         1 QZJ      -0.083400
      8 C06        -11.5610   -10.3920    -6.9700 c3         1 QZJ      -0.057700
      9 C07        -12.5920   -10.0900    -5.8550 c3         1 QZJ      -0.090600
     10 C08        -10.1570    -9.8940    -6.5570 c3         1 QZJ      -0.090600
     11 C16        -19.1430    -8.5010   -10.2180 c5         1 QZJ       0.100000
     12 C17        -17.7530    -8.2850   -10.8750 c5         1 QZJ      -0.093400
     13 C19        -13.5210    -6.5120   -11.5090 c3         1 QZJ       0.150600
     14 C23        -13.4610   -15.3160    -8.7600 c6         1 QZJ       0.196300
     15 C24        -14.9730   -15.6090    -8.9520 c6         1 QZJ      -0.090400
     16 C25        -15.3390   -17.0310    -8.4600 c6         1 QZJ      -0.069900
     17 C26        -14.4880   -18.1230    -9.1670 c6         1 QZJ      -0.064700
     18 C27        -14.8820   -19.5440    -8.6600 c3         1 QZJ      -0.071400
     19 C28        -14.2100   -20.7210    -9.3980 c3         1 QZJ      -0.088100
     20 C29        -12.9720   -17.8210    -8.9840 c6         1 QZJ      -0.069900
     21 C30        -12.6120   -16.3950    -9.4730 c6         1 QZJ      -0.090400
     22 N03        -13.0730   -11.8060    -9.3590 ns         1 QZJ      -0.473900
     23 N10        -14.2250    -8.3200    -9.9550 ns         1 QZJ      -0.497900
     24 N15        -19.3780    -7.1770    -9.6480 ns         1 QZJ      -0.514900
     25 O01        -14.0470   -12.8320    -7.5470 o          1 QZJ      -0.551000
     26 O18        -18.2550    -5.2930    -9.0290 o          1 QZJ      -0.563000
     27 O20        -13.9410    -5.6780   -12.6000 oh         1 QZJ      -0.656000
     28 O21        -13.5930    -9.9790   -11.3810 o          1 QZJ      -0.608100
     29 O22        -13.1140   -14.0200    -9.2810 os         1 QZJ      -0.461100
     30 H1         -15.0920    -7.9460   -11.8160 h1         1 QZJ       0.092700
     31 H2         -15.4780    -5.8650    -9.6130 hc         1 QZJ       0.065200
     32 H3         -16.2280    -5.8480   -11.1960 hc         1 QZJ       0.065200
     33 H4         -16.7550    -7.9310    -8.9880 hc         1 QZJ       0.096700
     34 H5         -14.0970   -10.3170    -8.2700 h1         1 QZJ       0.079700
     35 H6         -11.1530    -9.9310    -9.0570 hc         1 QZJ       0.056200
     36 H7         -12.0980    -8.7130    -8.2250 hc         1 QZJ       0.056200
     37 H8         -11.4920   -11.4810    -7.0730 hc         1 QZJ       0.052700
     38 H9         -12.2620   -10.5150    -4.9000 hc         1 QZJ       0.035533
     39 H10        -12.7180    -9.0090    -5.7210 hc         1 QZJ       0.035533
     40 H11        -13.5720   -10.5220    -6.0860 hc         1 QZJ       0.035533
     41 H12         -9.8470   -10.3500    -5.6080 hc         1 QZJ       0.035533
     42 H13         -9.4120   -10.1600    -7.3160 hc         1 QZJ       0.035533
     43 H14        -10.1490    -8.8040    -6.4330 hc         1 QZJ       0.035533
     44 H15        -19.9060    -8.7910   -10.9530 h1         1 QZJ       0.041200
     45 H16        -19.1040    -9.2700    -9.4340 h1         1 QZJ       0.041200
     46 H17        -17.2070    -9.2240   -11.0240 hc         1 QZJ       0.064200
     47 H18        -17.8600    -7.8050   -11.8550 hc         1 QZJ       0.064200
     48 H19        -12.7190    -7.1830   -11.8420 h1         1 QZJ       0.021700
     49 H20        -13.1200    -5.8960   -10.6930 h1         1 QZJ       0.021700
     50 H21        -13.2190   -15.3420    -7.6860 h1         1 QZJ       0.066700
     51 H22        -15.2380   -15.5060   -10.0140 hc         1 QZJ       0.054450
     52 H23        -15.5770   -14.8720    -8.4070 hc         1 QZJ       0.054450
     53 H24        -15.1930   -17.0900    -7.3720 hc         1 QZJ       0.043450
     54 H25        -16.4070   -17.2140    -8.6390 hc         1 QZJ       0.043450
     55 H26        -14.7220   -18.0990   -10.2410 hc         1 QZJ       0.047700
     56 H27        -14.6610   -19.6340    -7.5890 hc         1 QZJ       0.038200
     57 H28        -15.9680   -19.6710    -8.7560 hc         1 QZJ       0.038200
     58 H29        -14.6220   -21.6750    -9.0460 hc         1 QZJ       0.032367
     59 H30        -14.3830   -20.6520   -10.4790 hc         1 QZJ       0.032367
     60 H31        -13.1290   -20.7370    -9.2180 hc         1 QZJ       0.032367
     61 H32        -12.6930   -17.9290    -7.9260 hc         1 QZJ       0.043450
     62 H33        -12.3660   -18.5480    -9.5410 hc         1 QZJ       0.043450
     63 H34        -12.7650   -16.3290   -10.5590 hc         1 QZJ       0.054450
     64 H35        -11.5450   -16.2030    -9.2950 hc         1 QZJ       0.054450
     65 H36        -12.6420   -12.0190   -10.2490 hn         1 QZJ       0.331500
     66 H37        -14.2750    -8.0500    -8.9790 hn         1 QZJ       0.315500
     67 H38        -20.2810    -6.7470    -9.4850 hn         1 QZJ       0.324500
     68 H39        -13.1510    -5.1740   -12.8970 ho         1 QZJ       0.448000
     69 C09        -13.6980    -9.5650   -10.2330 c          1 QZJ       0.581100
@<TRIPOS>BOND
     1     1     2 1   
     2     1    13 1   
     3     1    23 1   
     4     1    30 1   
     5     2     3 1   
     6     2    31 1   
     7     2    32 1   
     8     3     4 1   
     9     3    12 1   
    10     3    33 1   
    11     4    24 1   
    12     4    26 2   
    13     5    22 1   
    14     5    25 2   
    15     5    29 1   
    16     6     7 1   
    17     6    22 1   
    18     6    34 1   
    19     6    69 1   
    20     7     8 1   
    21     7    35 1   
    22     7    36 1   
    23     8     9 1   
    24     8    10 1   
    25     8    37 1   
    26     9    38 1   
    27     9    39 1   
    28     9    40 1   
    29    10    41 1   
    30    10    42 1   
    31    10    43 1   
    32    11    12 1   
    33    11    24 1   
    34    11    44 1   
    35    11    45 1   
    36    12    46 1   
    37    12    47 1   
    38    13    27 1   
    39    13    48 1   
    40    13    49 1   
    41    14    15 1   
    42    14    21 1   
    43    14    29 1   
    44    14    50 1   
    45    15    16 1   
    46    15    51 1   
    47    15    52 1   
    48    16    17 1   
    49    16    53 1   
    50    16    54 1   
    51    17    18 1   
    52    17    20 1   
    53    17    55 1   
    54    18    19 1   
    55    18    56 1   
    56    18    57 1   
    57    19    58 1   
    58    19    59 1   
    59    19    60 1   
    60    20    21 1   
    61    20    61 1   
    62    20    62 1   
    63    21    63 1   
    64    21    64 1   
    65    22    65 1   
    66    23    66 1   
    67    23    69 1   
    68    24    67 1   
    69    27    68 1   
    70    28    69 2   
@<TRIPOS>SUBSTRUCTURE
     1 QZJ         1 TEMP              0 ****  ****    0 ROOT
