@<TRIPOS>MOLECULE
QZJ
   69    70     1     0     0
SMALL
abcg2


@<TRIPOS>ATOM
      1 C11        -14.9840    -7.8980   -10.1950 c3         1 QZJ       0.104700
      2 C12        -16.4450    -8.2040    -9.8660 c3         1 QZJ      -0.070400
      3 C13        -16.7710    -9.6890    -9.9120 c5         1 QZJ      -0.157700
      4 C14        -18.2200    -9.9710    -9.5460 c          1 QZJ       0.565000
      5 C02        -13.3490   -12.2160    -8.2390 c          1 QZJ       0.640100
      6 C04        -12.3800   -10.0060    -8.3710 c3         1 QZJ       0.046700
      7 C05        -11.0030    -9.3520    -8.4860 c3         1 QZJ      -0.083400
      8 C06        -10.0070    -9.7270    -7.3860 c3         1 QZJ      -0.057700
      9 C07        -10.5250    -9.3910    -5.9930 c3         1 QZJ      -0.090600
     10 C08         -8.6790    -9.0250    -7.6520 c3         1 QZJ      -0.090600
     11 C16        -17.6830   -11.4510   -11.2890 c5         1 QZJ       0.100000
     12 C17        -16.6170   -10.3520   -11.2820 c5         1 QZJ      -0.093400
     13 C19        -14.6870    -6.4020   -10.2020 c3         1 QZJ       0.150600
     14 C23        -14.1550   -14.4450    -8.4730 c6         1 QZJ       0.196300
     15 C24        -15.0080   -14.3700    -9.7300 c6         1 QZJ      -0.090400
     16 C25        -16.0700   -15.4660    -9.7190 c6         1 QZJ      -0.069900
     17 C26        -15.4580   -16.8580    -9.5760 c6         1 QZJ      -0.064700
     18 C27        -16.5400   -17.9350    -9.5790 c3         1 QZJ      -0.071400
     19 C28        -16.0070   -19.3620    -9.5910 c3         1 QZJ      -0.088100
     20 C29        -14.5800   -16.9090    -8.3250 c6         1 QZJ      -0.069900
     21 C30        -13.5170   -15.8140    -8.3240 c6         1 QZJ      -0.090400
     22 N03        -12.2540   -11.4410    -8.3990 ns         1 QZJ      -0.473900
     23 N10        -14.0950    -8.5350    -9.2450 ns         1 QZJ      -0.497900
     24 N15        -18.6690   -10.9330   -10.3660 ns         1 QZJ      -0.514900
     25 O01        -14.4240   -11.7990    -7.8590 o          1 QZJ      -0.551000
     26 O18        -18.8570    -9.4270    -8.6570 o          1 QZJ      -0.563000
     27 O20        -15.4770    -5.7870   -11.1900 oh         1 QZJ      -0.656000
     28 O21        -13.1120   -10.0170   -10.6530 o          1 QZJ      -0.608100
     29 O22        -13.0820   -13.4900    -8.5220 os         1 QZJ      -0.461100
     30 H1         -14.7380    -8.3010   -11.1780 h1         1 QZJ       0.092700
     31 H2         -16.6790    -7.8070    -8.8730 hc         1 QZJ       0.065200
     32 H3         -17.0840    -7.6730   -10.5750 hc         1 QZJ       0.065200
     33 H4         -16.1530   -10.2210    -9.1770 hc         1 QZJ       0.096700
     34 H5         -12.8420    -9.7100    -7.4260 h1         1 QZJ       0.079700
     35 H6         -10.5780    -9.6070    -9.4620 hc         1 QZJ       0.056200
     36 H7         -11.1460    -8.2670    -8.4840 hc         1 QZJ       0.056200
     37 H8          -9.8280   -10.8070    -7.4310 hc         1 QZJ       0.052700
     38 H9          -9.7690    -9.6110    -5.2380 hc         1 QZJ       0.035533
     39 H10        -10.7740    -8.3300    -5.9110 hc         1 QZJ       0.035533
     40 H11        -11.4150    -9.9630    -5.7300 hc         1 QZJ       0.035533
     41 H12         -7.9320    -9.3030    -6.9060 hc         1 QZJ       0.035533
     42 H13         -8.2780    -9.2820    -8.6340 hc         1 QZJ       0.035533
     43 H14         -8.7970    -7.9400    -7.6140 hc         1 QZJ       0.035533
     44 H15        -18.1140   -11.6140   -12.2760 h1         1 QZJ       0.041200
     45 H16        -17.2830   -12.4090   -10.9400 h1         1 QZJ       0.041200
     46 H17        -15.6180   -10.7440   -11.4570 hc         1 QZJ       0.064200
     47 H18        -16.8300    -9.6260   -12.0710 hc         1 QZJ       0.064200
     48 H19        -13.6150    -6.2640   -10.3950 h1         1 QZJ       0.021700
     49 H20        -14.8910    -5.9890    -9.2040 h1         1 QZJ       0.021700
     50 H21        -14.7800   -14.2440    -7.5960 h1         1 QZJ       0.066700
     51 H22        -14.3630   -14.4900   -10.6070 hc         1 QZJ       0.054450
     52 H23        -15.4810   -13.3890    -9.8100 hc         1 QZJ       0.054450
     53 H24        -16.7700   -15.2940    -8.8930 hc         1 QZJ       0.043450
     54 H25        -16.6620   -15.4080   -10.6370 hc         1 QZJ       0.043450
     55 H26        -14.8080   -17.0270   -10.4450 hc         1 QZJ       0.047700
     56 H27        -17.1910   -17.7930    -8.7090 hc         1 QZJ       0.038200
     57 H28        -17.1770   -17.7870   -10.4570 hc         1 QZJ       0.038200
     58 H29        -16.8190   -20.0820    -9.6940 hc         1 QZJ       0.032367
     59 H30        -15.3200   -19.5180   -10.4260 hc         1 QZJ       0.032367
     60 H31        -15.4710   -19.6080    -8.6740 hc         1 QZJ       0.032367
     61 H32        -15.2170   -16.8050    -7.4370 hc         1 QZJ       0.043450
     62 H33        -14.0890   -17.8800    -8.2380 hc         1 QZJ       0.043450
     63 H34        -12.8200   -15.9810    -9.1520 hc         1 QZJ       0.054450
     64 H35        -12.9330   -15.8550    -7.4010 hc         1 QZJ       0.054450
     65 H36        -11.4610   -11.8350    -8.8820 hn         1 QZJ       0.331500
     66 H37        -14.1730    -8.2520    -8.2800 hn         1 QZJ       0.315500
     67 H38        -19.5780   -11.3540   -10.2500 hn         1 QZJ       0.324500
     68 H39        -15.3170    -4.8400   -11.1570 ho         1 QZJ       0.448000
     69 C09        -13.2470    -9.5300    -9.5410 c          1 QZJ       0.581100
@<TRIPOS>BOND
     1     1     2 1   
     2     1    13 1   
     3     1    23 1   
     4     1    30 1   
     5     2     3 1   
     6     2    31 1   
     7     2    32 1   
     8     3     4 1   
     9     3    12 1   
    10     3    33 1   
    11     4    24 1   
    12     4    26 2   
    13     5    22 1   
    14     5    25 2   
    15     5    29 1   
    16     6     7 1   
    17     6    22 1   
    18     6    34 1   
    19     6    69 1   
    20     7     8 1   
    21     7    35 1   
    22     7    36 1   
    23     8     9 1   
    24     8    10 1   
    25     8    37 1   
    26     9    38 1   
    27     9    39 1   
    28     9    40 1   
    29    10    41 1   
    30    10    42 1   
    31    10    43 1   
    32    11    12 1   
    33    11    24 1   
    34    11    44 1   
    35    11    45 1   
    36    12    46 1   
    37    12    47 1   
    38    13    27 1   
    39    13    48 1   
    40    13    49 1   
    41    14    15 1   
    42    14    21 1   
    43    14    29 1   
    44    14    50 1   
    45    15    16 1   
    46    15    51 1   
    47    15    52 1   
    48    16    17 1   
    49    16    53 1   
    50    16    54 1   
    51    17    18 1   
    52    17    20 1   
    53    17    55 1   
    54    18    19 1   
    55    18    56 1   
    56    18    57 1   
    57    19    58 1   
    58    19    59 1   
    59    19    60 1   
    60    20    21 1   
    61    20    61 1   
    62    20    62 1   
    63    21    63 1   
    64    21    64 1   
    65    22    65 1   
    66    23    66 1   
    67    23    69 1   
    68    24    67 1   
    69    27    68 1   
    70    28    69 2   
@<TRIPOS>SUBSTRUCTURE
     1 QZJ         1 TEMP              0 ****  ****    0 ROOT
