@<TRIPOS>MOLECULE
QZN
   46    47     1     0     0
SMALL
abcg2


@<TRIPOS>ATOM
      1 CAA         10.1640     0.8100    -0.0040 c3         1 QZN      -0.088100
      2 CAH          8.7430     1.3580     0.0030 c3         1 QZN      -0.074400
      3 CAI          7.6850     0.2620    -0.0010 c3         1 QZN      -0.075400
      4 CAJ          6.2570     0.7920     0.0060 c3         1 QZN      -0.073400
      5 CAK          5.2140    -0.3170    -0.0020 c3         1 QZN      -0.075400
      6 CAL          3.7760     0.1870     0.0040 c3         1 QZN      -0.072400
      7 CAM          2.7600    -0.9460    -0.0190 c3         1 QZN      -0.078400
      8 CAN          1.3110    -0.4730    -0.0130 c3         1 QZN      -0.066400
      9 CAO          0.3580    -1.6560    -0.0680 c3         1 QZN      -0.106700
     10 CAR         -1.0920    -1.2870    -0.0660 cc         1 QZN       0.552900
     11 NAP         -1.4420    -0.0510    -0.0160 nd         1 QZN      -0.640100
     12 CAT         -2.7760     0.2620    -0.0180 ca         1 QZN       0.207400
     13 CAG         -3.1450     1.6130     0.0380 ca         1 QZN      -0.104000
     14 CAQ         -4.4800     1.9440     0.0370 ca         1 QZN       0.155000
     15 CL          -4.9380     3.6100     0.1060 cl         1 QZN      -0.190000
     16 CAE         -5.4850     0.9730    -0.0190 ca         1 QZN      -0.133000
     17 CAF         -5.1230    -0.3530    -0.0730 ca         1 QZN      -0.029000
     18 CAU         -3.7740    -0.7170    -0.0730 ca         1 QZN      -0.212600
     19 CAS         -3.3810    -2.1140    -0.1280 c          1 QZN       0.561600
     20 OAC         -4.1480    -3.0560    -0.1780 o          1 QZN      -0.544000
     21 NAV         -2.0060    -2.3160    -0.1200 n          1 QZN      -0.230700
     22 NAB         -1.5180    -3.6150    -0.1670 nv         1 QZN      -0.746200
     23 H1          10.9030     1.6110     0.0020 hc         1 QZN       0.031367
     24 H2          10.3480     0.1830     0.8720 hc         1 QZN       0.031367
     25 H3          10.3450     0.1970    -0.8890 hc         1 QZN       0.031367
     26 H4           8.6020     1.9970     0.8800 hc         1 QZN       0.036700
     27 H5           8.5980     2.0060    -0.8670 hc         1 QZN       0.036700
     28 H6           7.8290    -0.3780    -0.8790 hc         1 QZN       0.036700
     29 H7           7.8330    -0.3870     0.8700 hc         1 QZN       0.036700
     30 H8           6.1100     1.4290     0.8850 hc         1 QZN       0.037700
     31 H9           6.1070     1.4420    -0.8640 hc         1 QZN       0.037700
     32 H10          5.3670    -0.9530    -0.8820 hc         1 QZN       0.036700
     33 H11          5.3690    -0.9670     0.8660 hc         1 QZN       0.036700
     34 H12          3.6130     0.8120     0.8880 hc         1 QZN       0.039700
     35 H13          3.6160     0.8410    -0.8610 hc         1 QZN       0.039700
     36 H14          2.9320    -1.5680    -0.9050 hc         1 QZN       0.036200
     37 H15          2.9280    -1.6020     0.8430 hc         1 QZN       0.036200
     38 H16          1.1210     0.1240     0.8820 hc         1 QZN       0.055200
     39 H17          1.1370     0.1900    -0.8650 hc         1 QZN       0.055200
     40 H18          0.5610    -2.2580    -0.9590 hc         1 QZN       0.071700
     41 H19          0.5450    -2.3310     0.7720 hc         1 QZN       0.071700
     42 H20         -2.3750     2.3710     0.0810 ha         1 QZN       0.149000
     43 H21         -6.5270     1.2610    -0.0190 ha         1 QZN       0.136000
     44 H22         -5.8870    -1.1170    -0.1160 ha         1 QZN       0.139000
     45 H23         -1.8900    -4.1310     0.6210 hn         1 QZN       0.423000
     46 H24         -1.8590    -4.0620    -1.0110 hn         1 QZN       0.423000
@<TRIPOS>BOND
     1     1     2 1   
     2     1    23 1   
     3     1    24 1   
     4     1    25 1   
     5     2     3 1   
     6     2    26 1   
     7     2    27 1   
     8     3     4 1   
     9     3    28 1   
    10     3    29 1   
    11     4     5 1   
    12     4    30 1   
    13     4    31 1   
    14     5     6 1   
    15     5    32 1   
    16     5    33 1   
    17     6     7 1   
    18     6    34 1   
    19     6    35 1   
    20     7     8 1   
    21     7    36 1   
    22     7    37 1   
    23     8     9 1   
    24     8    38 1   
    25     8    39 1   
    26     9    10 1   
    27     9    40 1   
    28     9    41 1   
    29    10    11 2   
    30    10    21 1   
    31    11    12 1   
    32    12    13 ar  
    33    12    18 ar  
    34    13    14 ar  
    35    13    42 1   
    36    14    15 1   
    37    14    16 ar  
    38    16    17 ar  
    39    16    43 1   
    40    17    18 ar  
    41    17    44 1   
    42    18    19 1   
    43    19    20 2   
    44    19    21 1   
    45    21    22 1   
    46    22    45 1   
    47    22    46 1   
@<TRIPOS>SUBSTRUCTURE
     1 QZN         1 TEMP              0 ****  ****    0 ROOT
