@<TRIPOS>MOLECULE
QZN
   46    47     1     0     0
SMALL
No Charge or Current Charge


@<TRIPOS>ATOM
      1 CAA         10.2630     0.9550     0.0230 c3         1 QZN      -0.088100
      2 CAH          8.8020     1.4430     0.0350 c3         1 QZN      -0.074400
      3 CAI          7.7780     0.2870    -0.0030 c3         1 QZN      -0.075400
      4 CAJ          6.3130     0.7770     0.0100 c3         1 QZN      -0.073400
      5 CAK          5.2890    -0.3790    -0.0290 c3         1 QZN      -0.075400
      6 CAL          3.8240     0.1110    -0.0160 c3         1 QZN      -0.072400
      7 CAM          2.8010    -1.0450    -0.0550 c3         1 QZN      -0.078400
      8 CAN          1.3350    -0.5560    -0.0420 c3         1 QZN      -0.066400
      9 CAO          0.3070    -1.7200    -0.0810 c3         1 QZN      -0.106700
     10 CAR         -1.1670    -1.3400    -0.0720 cc         1 QZN       0.552900
     11 NAP         -1.4710    -0.0360    -0.0320 nd         1 QZN      -0.640100
     12 CAT         -2.8320     0.2770    -0.0250 ca         1 QZN       0.207400
     13 CAG         -3.1760     1.6390     0.0160 ca         1 QZN      -0.104000
     14 CAQ         -4.5190     2.0420     0.0260 ca         1 QZN       0.155000
     15 Cl          -4.9240     3.7530     0.0780 cl         1 QZN      -0.190000
     16 CAE         -5.5390     1.0830    -0.0060 ca         1 QZN      -0.133000
     17 CAF         -5.2100    -0.2810    -0.0480 ca         1 QZN      -0.029000
     18 CAU         -3.8550    -0.6810    -0.0570 ca         1 QZN      -0.212600
     19 CAS         -3.4860    -2.1130    -0.1010 c          1 QZN       0.561600
     20 OAC         -4.3310    -3.0020    -0.1310 o          1 QZN      -0.544000
     21 NAV         -2.1060    -2.3950    -0.1070 n          1 QZN      -0.230700
     22 NAB         -1.6820    -3.8080    -0.1500 nv         1 QZN      -0.746200
     23 H1          10.9510     1.8080     0.0510 hc         1 QZN       0.031367
     24 H2          10.4680     0.3200     0.8930 hc         1 QZN       0.031367
     25 H3          10.4710     0.3760    -0.8860 hc         1 QZN       0.031367
     26 H4           8.6360     2.0460     0.9370 hc         1 QZN       0.036700
     27 H5           8.6390     2.1020    -0.8260 hc         1 QZN       0.036700
     28 H6           7.9480    -0.3150    -0.9040 hc         1 QZN       0.036700
     29 H7           7.9450    -0.3710     0.8590 hc         1 QZN       0.036700
     30 H8           6.1420     1.3790     0.9110 hc         1 QZN       0.037700
     31 H9           6.1460     1.4350    -0.8520 hc         1 QZN       0.037700
     32 H10          5.4600    -0.9810    -0.9300 hc         1 QZN       0.036700
     33 H11          5.4560    -1.0370     0.8330 hc         1 QZN       0.036700
     34 H12          3.6540     0.7130     0.8850 hc         1 QZN       0.039700
     35 H13          3.6570     0.7690    -0.8780 hc         1 QZN       0.039700
     36 H14          2.9720    -1.6480    -0.9550 hc         1 QZN       0.036200
     37 H15          2.9680    -1.7030     0.8080 hc         1 QZN       0.036200
     38 H16          1.1690     0.0470     0.8600 hc         1 QZN       0.055200
     39 H17          1.1720     0.1020    -0.9050 hc         1 QZN       0.055200
     40 H18          0.5050    -2.3190    -0.9770 hc         1 QZN       0.071700
     41 H19          0.5010    -2.3740     0.7770 hc         1 QZN       0.071700
     42 H20         -2.3930     2.3910     0.0410 ha         1 QZN       0.149000
     43 H21         -6.5810     1.3950     0.0020 ha         1 QZN       0.136000
     44 H22         -6.0080    -1.0210    -0.0720 ha         1 QZN       0.139000
     45 H23         -2.0010    -4.2830     0.6960 hn         1 QZN       0.423000
     46 H24         -2.0030    -4.2230    -1.0260 hn         1 QZN       0.423000
@<TRIPOS>BOND
     1     1     2 1   
     2     1    23 1   
     3     1    24 1   
     4     1    25 1   
     5     2     3 1   
     6     2    26 1   
     7     2    27 1   
     8     3     4 1   
     9     3    28 1   
    10     3    29 1   
    11     4     5 1   
    12     4    30 1   
    13     4    31 1   
    14     5     6 1   
    15     5    32 1   
    16     5    33 1   
    17     6     7 1   
    18     6    34 1   
    19     6    35 1   
    20     7     8 1   
    21     7    36 1   
    22     7    37 1   
    23     8     9 1   
    24     8    38 1   
    25     8    39 1   
    26     9    10 1   
    27     9    40 1   
    28     9    41 1   
    29    10    11 2   
    30    10    21 1   
    31    11    12 1   
    32    12    13 ar  
    33    12    18 ar  
    34    13    14 ar  
    35    13    42 1   
    36    14    15 1   
    37    14    16 ar  
    38    16    17 ar  
    39    16    43 1   
    40    17    18 ar  
    41    17    44 1   
    42    18    19 1   
    43    19    20 2   
    44    19    21 1   
    45    21    22 1   
    46    22    45 1   
    47    22    46 1   
@<TRIPOS>SUBSTRUCTURE
     1 QZN         1 TEMP              0 ****  ****    0 ROOT
