@<TRIPOS>MOLECULE
QZO
   38    42     1     0     0
SMALL
No Charge or Current Charge


@<TRIPOS>ATOM
      1 N1         -45.5860   -28.9750     2.5210 nh         1 QZO      -0.766300
      2 C16        -46.2360   -30.1030     1.8010 c6         1 QZO       0.242800
      3 C17        -45.2670   -31.0030     1.0090 cx         1 QZO      -0.163700
      4 C15        -44.1150   -29.1120     5.7900 ca         1 QZO       0.185900
      5 C14        -46.3470   -29.2600     6.1740 ca         1 QZO       0.199500
      6 C13        -48.8580   -28.8690     3.4640 ca         1 QZO      -0.041000
      7 C12        -50.2630   -28.8860     3.6200 ca         1 QZO      -0.178000
      8 C11        -50.8440   -29.1070     4.8900 ca         1 QZO       0.173000
      9 C10        -50.0380   -29.2990     6.0290 ca         1 QZO      -0.178000
     10 C9         -48.6550   -29.2850     5.8390 ca         1 QZO       0.003800
     11 C8         -48.0530   -29.1010     4.5990 cp         1 QZO      -0.043000
     12 C7         -46.6010   -29.1190     4.8050 cp         1 QZO      -0.230000
     13 C6         -45.4930   -29.0100     3.9310 ca         1 QZO       0.447900
     14 C5         -44.5850   -28.2490     1.6900 c6         1 QZO       0.222800
     15 C4         -43.4040   -29.1600     1.2560 c6         1 QZO      -0.067400
     16 C3         -43.8580   -30.5280     0.7150 cx         1 QZO      -0.126700
     17 C2         -44.0890   -31.6730     1.6920 cx         1 QZO      -0.190700
     18 C1         -43.7030   -33.0830     1.2840 c          1 QZO       0.726000
     19 O1         -44.5540   -33.9570     1.3580 o          1 QZO      -0.733500
     20 N2         -47.6110   -29.3850     6.7630 na         1 QZO      -0.335300
     21 N3         -45.1110   -29.2590     6.6920 nb         1 QZO      -0.254000
     22 N4         -44.2430   -28.9930     4.4490 nb         1 QZO      -0.284000
     23 H13        -46.7930   -30.7410     2.5030 h1         1 QZO       0.048200
     24 H12        -46.9720   -29.7030     1.0890 h1         1 QZO       0.048200
     25 H14        -45.7720   -31.5790     0.2370 hc         1 QZO       0.102700
     26 H11        -43.1010   -29.1000     6.1850 h5         1 QZO       0.039100
     27 H9         -48.4180   -28.6600     2.4950 ha         1 QZO       0.127000
     28 H8         -50.9040   -28.7160     2.7590 ha         1 QZO       0.126000
     29 H7         -50.4770   -29.4410     7.0130 ha         1 QZO       0.129000
     30 H5         -44.1960   -27.3710     2.2270 h1         1 QZO       0.045200
     31 H6         -45.0810   -27.8620     0.7880 h1         1 QZO       0.045200
     32 H4         -42.7230   -29.3190     2.1030 hc         1 QZO       0.044700
     33 H3         -42.8140   -28.6430     0.4880 hc         1 QZO       0.044700
     34 H2         -43.4350   -30.7800    -0.2560 hc         1 QZO       0.095700
     35 H1         -43.9480   -31.4580     2.7470 hc         1 QZO       0.063700
     36 H10        -47.7460   -29.5230     7.7580 hn         1 QZO       0.360000
     37 O2         -42.5450   -33.2910     0.9530 o          1 QZO      -0.733500
     38 F1         -52.1880   -29.1090     5.0170 f          1 QZO      -0.196000
@<TRIPOS>BOND
     1     1     2 1   
     2     1    13 1   
     3     1    14 1   
     4     2     3 1   
     5     2    23 1   
     6     2    24 1   
     7     3    16 1   
     8     3    17 1   
     9     3    25 1   
    10     4    21 ar  
    11     4    22 ar  
    12     4    26 1   
    13     5    12 ar  
    14     5    20 1   
    15     5    21 ar  
    16     6     7 ar  
    17     6    11 ar  
    18     6    27 1   
    19     7     8 ar  
    20     7    28 1   
    21     8     9 ar  
    22     8    38 1   
    23     9    10 ar  
    24     9    29 1   
    25    10    11 ar  
    26    10    20 1   
    27    11    12 1   
    28    12    13 ar  
    29    13    22 ar  
    30    14    15 1   
    31    14    30 1   
    32    14    31 1   
    33    15    16 1   
    34    15    32 1   
    35    15    33 1   
    36    16    17 1   
    37    16    34 1   
    38    17    18 1   
    39    17    35 1   
    40    18    19 1   
    41    18    37 1   
    42    20    36 1   
@<TRIPOS>SUBSTRUCTURE
     1 QZO         1 TEMP              0 ****  ****    0 ROOT
