@<TRIPOS>MOLECULE
QZO
   38    42     1     0     0
SMALL
abcg2


@<TRIPOS>ATOM
      1 N1         -45.4010   -28.7860     2.4730 nh         1 QZO      -0.766300
      2 C16        -46.2070   -29.6840     1.6470 c6         1 QZO       0.242800
      3 C17        -45.3570   -30.7590     0.9980 cx         1 QZO      -0.163700
      4 C15        -44.1710   -28.8430     5.7880 ca         1 QZO       0.185900
      5 C14        -46.3220   -29.3610     5.9780 ca         1 QZO       0.199500
      6 C13        -48.8780   -28.9470     3.3670 ca         1 QZO      -0.041000
      7 C12        -50.2480   -29.0510     3.5740 ca         1 QZO      -0.178000
      8 C11        -50.7210   -29.4080     4.8320 ca         1 QZO       0.173000
      9 C10        -49.9060   -29.6500     5.9190 ca         1 QZO      -0.178000
     10 C9         -48.5390   -29.5300     5.6940 ca         1 QZO       0.003800
     11 C8         -47.9950   -29.2070     4.4190 cp         1 QZO      -0.043000
     12 C7         -46.5570   -29.1450     4.6030 cp         1 QZO      -0.230000
     13 C6         -45.4040   -28.8690     3.8310 ca         1 QZO       0.447900
     14 C5         -44.2470   -28.2400     1.7580 c6         1 QZO       0.222800
     15 C4         -43.2180   -29.3080     1.3870 c6         1 QZO      -0.067400
     16 C3         -43.8760   -30.5760     0.8640 cx         1 QZO      -0.126700
     17 C2         -44.4290   -31.5890     1.8490 cx         1 QZO      -0.190700
     18 C1         -44.2700   -33.0710     1.5980 c          1 QZO       0.726000
     19 O1         -44.0410   -33.7860     2.6120 o          1 QZO      -0.733500
     20 N2         -47.5060   -29.6420     6.6020 na         1 QZO      -0.335300
     21 N3         -45.1460   -29.2460     6.6020 nb         1 QZO      -0.254000
     22 N4         -44.2330   -28.6540     4.4740 nb         1 QZO      -0.284000
     23 H13        -46.9700   -30.1520     2.2590 h1         1 QZO       0.048200
     24 H12        -46.7060   -29.0960     0.8710 h1         1 QZO       0.048200
     25 H14        -45.8560   -31.2920     0.1980 hc         1 QZO       0.102700
     26 H11        -43.2050   -28.6650     6.2480 h5         1 QZO       0.039100
     27 H9         -48.5170   -28.6460     2.3960 ha         1 QZO       0.127000
     28 H8         -50.9500   -28.8530     2.7770 ha         1 QZO       0.126000
     29 H7         -50.3170   -29.8970     6.8880 ha         1 QZO       0.129000
     30 H5         -43.7990   -27.4560     2.3610 h1         1 QZO       0.045200
     31 H6         -44.6470   -27.7870     0.8470 h1         1 QZO       0.045200
     32 H4         -42.5970   -29.5330     2.2560 hc         1 QZO       0.044700
     33 H3         -42.5590   -28.8950     0.6200 hc         1 QZO       0.044700
     34 H2         -43.4280   -31.0140    -0.0190 hc         1 QZO       0.095700
     35 H1         -44.3560   -31.3020     2.8920 hc         1 QZO       0.063700
     36 H10        -47.6100   -29.7820     7.5950 hn         1 QZO       0.360000
     37 O2         -44.3710   -33.4840     0.4120 o          1 QZO      -0.733500
     38 F1         -52.0660   -29.5050     5.0070 f          1 QZO      -0.196000
@<TRIPOS>BOND
     1     1     2 1   
     2     1    13 1   
     3     1    14 1   
     4     2     3 1   
     5     2    23 1   
     6     2    24 1   
     7     3    16 1   
     8     3    17 1   
     9     3    25 1   
    10     4    21 ar  
    11     4    22 ar  
    12     4    26 1   
    13     5    12 ar  
    14     5    20 1   
    15     5    21 ar  
    16     6     7 ar  
    17     6    11 ar  
    18     6    27 1   
    19     7     8 ar  
    20     7    28 1   
    21     8     9 ar  
    22     8    38 1   
    23     9    10 ar  
    24     9    29 1   
    25    10    11 ar  
    26    10    20 1   
    27    11    12 1   
    28    12    13 ar  
    29    13    22 ar  
    30    14    15 1   
    31    14    30 1   
    32    14    31 1   
    33    15    16 1   
    34    15    32 1   
    35    15    33 1   
    36    16    17 1   
    37    16    34 1   
    38    17    18 1   
    39    17    35 1   
    40    18    19 1   
    41    18    37 1   
    42    20    36 1   
@<TRIPOS>SUBSTRUCTURE
     1 QZO         1 TEMP              0 ****  ****    0 ROOT
