@<TRIPOS>MOLECULE
QZP
   26    26     1     0     0
SMALL
abcg2


@<TRIPOS>ATOM
      1 C10          3.0470     1.6040    17.8320 ca         1 QZP      -0.139500
      2 C11          4.2400     5.1940    17.2740 c          1 QZP       0.712600
      3 C01          2.5170     0.3850    21.4020 c3         1 QZP      -0.084100
      4 C02          2.5580    -0.5210    20.1790 c3         1 QZP      -0.059700
      5 C03          2.4890    -1.9880    20.5870 c3         1 QZP      -0.084100
      6 C04          3.8120    -0.2720    19.3290 c3         1 QZP      -0.014100
      7 C05          3.9290     1.1310    18.8040 ca         1 QZP      -0.117300
      8 C06          4.9050     2.0060    19.2740 ca         1 QZP      -0.139500
      9 C07          5.0020     3.3020    18.7870 ca         1 QZP      -0.090500
     10 C08          4.1230     3.7730    17.8160 ca         1 QZP      -0.131600
     11 C09          3.1420     2.9000    17.3490 ca         1 QZP      -0.090500
     12 O12          3.3970     5.5390    16.4230 o          1 QZP      -0.722500
     13 O13          5.1700     5.8880    17.7300 o          1 QZP      -0.722500
     14 H1           2.2790     0.9450    17.4410 ha         1 QZP       0.082000
     15 H2           1.6280     0.1910    22.0050 hc         1 QZP       0.027033
     16 H3           3.3910     0.2210    22.0390 hc         1 QZP       0.027033
     17 H4           2.5050     1.4410    21.1270 hc         1 QZP       0.027033
     18 H5           1.6830    -0.3000    19.5580 hc         1 QZP       0.047700
     19 H6           1.5810    -2.1980    21.1550 hc         1 QZP       0.027033
     20 H7           2.4970    -2.6460    19.7160 hc         1 QZP       0.027033
     21 H8           3.3410    -2.2590    21.2150 hc         1 QZP       0.027033
     22 H9           3.8060    -0.9730    18.4880 hc         1 QZP       0.030200
     23 H10          4.6970    -0.5150    19.9270 hc         1 QZP       0.030200
     24 H11          5.6030     1.6650    20.0300 ha         1 QZP       0.082000
     25 H12          5.7740     3.9590    19.1670 ha         1 QZP       0.124500
     26 H13          2.4470     3.2410    16.5920 ha         1 QZP       0.124500
@<TRIPOS>BOND
     1     1     7 ar  
     2     1    11 ar  
     3     1    14 1   
     4     2    10 1   
     5     2    12 1   
     6     2    13 1   
     7     3     4 1   
     8     3    15 1   
     9     3    16 1   
    10     3    17 1   
    11     4     5 1   
    12     4     6 1   
    13     4    18 1   
    14     5    19 1   
    15     5    20 1   
    16     5    21 1   
    17     6     7 1   
    18     6    22 1   
    19     6    23 1   
    20     7     8 ar  
    21     8     9 ar  
    22     8    24 1   
    23     9    10 ar  
    24     9    25 1   
    25    10    11 ar  
    26    11    26 1   
@<TRIPOS>SUBSTRUCTURE
     1 QZP         1 TEMP              0 ****  ****    0 ROOT
