@<TRIPOS>MOLECULE
QZP
   26    26     1     0     0
SMALL
No Charge or Current Charge


@<TRIPOS>ATOM
      1 C10          3.0670     1.5820    17.7720 ca         1 QZP      -0.139500
      2 C11          4.2240     5.2170    17.2580 c          1 QZP       0.712600
      3 C01          2.5740     0.3730    21.4680 c3         1 QZP      -0.084100
      4 C02          2.5780    -0.5250    20.2080 c3         1 QZP      -0.059700
      5 C03          2.4360    -2.0160    20.5900 c3         1 QZP      -0.084100
      6 C04          3.8270    -0.2880    19.3190 c3         1 QZP      -0.014100
      7 C05          3.9330     1.1380    18.7860 ca         1 QZP      -0.117300
      8 C06          4.8960     2.0240    19.3000 ca         1 QZP      -0.139500
      9 C07          4.9910     3.3380    18.8100 ca         1 QZP      -0.090500
     10 C08          4.1230     3.7950    17.7900 ca         1 QZP      -0.131600
     11 C09          3.1580     2.8950    17.2780 ca         1 QZP      -0.090500
     12 O12          3.4520     5.5700    16.3760 o          1 QZP      -0.722500
     13 O13          5.0730     5.9610    17.7290 o          1 QZP      -0.722500
     14 H1           2.3180     0.9080    17.3620 ha         1 QZP       0.082000
     15 H2           1.6790     0.1870    22.0730 hc         1 QZP       0.027033
     16 H3           3.4560     0.1770    22.0900 hc         1 QZP       0.027033
     17 H4           2.5760     1.4350    21.1940 hc         1 QZP       0.027033
     18 H5           1.6930    -0.2610    19.6160 hc         1 QZP       0.047700
     19 H6           1.5220    -2.1820    21.1740 hc         1 QZP       0.027033
     20 H7           2.3800    -2.6430    19.6920 hc         1 QZP       0.027033
     21 H8           3.2920    -2.3500    21.1890 hc         1 QZP       0.027033
     22 H9           3.7970    -0.9840    18.4710 hc         1 QZP       0.030200
     23 H10          4.7280    -0.5510    19.8890 hc         1 QZP       0.030200
     24 H11          5.5730     1.6980    20.0860 ha         1 QZP       0.082000
     25 H12          5.7440     4.0030    19.2280 ha         1 QZP       0.124500
     26 H13          2.4740     3.2120    16.4940 ha         1 QZP       0.124500
@<TRIPOS>BOND
     1     1     7 ar  
     2     1    11 ar  
     3     1    14 1   
     4     2    10 1   
     5     2    12 1   
     6     2    13 1   
     7     3     4 1   
     8     3    15 1   
     9     3    16 1   
    10     3    17 1   
    11     4     5 1   
    12     4     6 1   
    13     4    18 1   
    14     5    19 1   
    15     5    20 1   
    16     5    21 1   
    17     6     7 1   
    18     6    22 1   
    19     6    23 1   
    20     7     8 ar  
    21     8     9 ar  
    22     8    24 1   
    23     9    10 ar  
    24     9    25 1   
    25    10    11 ar  
    26    11    26 1   
@<TRIPOS>SUBSTRUCTURE
     1 QZP         1 TEMP              0 ****  ****    0 ROOT
