@<TRIPOS>MOLECULE
QZQ
   78    82     1     0     0
SMALL
bcc


@<TRIPOS>ATOM
      1 C01         -3.9750    -1.2410     0.2090 c5         1 QZQ      -0.025500
      2 C04         -3.9000    -2.6840    -0.2220 c2         1 QZQ      -0.078400
      3 C36         -3.7750    -2.9770    -1.6900 c3         1 QZQ      -0.055900
      4 C37         -3.9930    -3.6730     0.6670 c2         1 QZQ      -0.265000
      5 C07         -5.3170    -0.5870    -0.2480 c5         1 QZQ      -0.059400
      6 C02         -4.9410     0.6490    -1.0780 c5         1 QZQ      -0.050400
      7 C12         -3.5750     1.0670    -0.5220 c5         1 QZQ      -0.183000
      8 C2          -2.7120     1.9040    -1.4550 c6         1 QZQ      -0.035400
      9 C3          -1.2970     2.0500    -0.8870 c6         1 QZQ      -0.064400
     10 C19         -0.5920     0.7100    -0.5640 c6         1 QZQ      -0.021000
     11 C20         -1.5300    -0.2110     0.2680 c6         1 QZQ      -0.046700
     12 C21         -2.9040    -0.3060    -0.3840 c5         1 QZQ      -0.019700
     13 C15         -0.8690    -1.5610     0.5240 c6         1 QZQ      -0.067400
     14 C13          0.5080    -1.4280     1.1730 c6         1 QZQ      -0.068400
     15 C14          1.4310    -0.4370     0.4500 c6         1 QZQ      -0.039700
     16 C17          2.8910    -0.4160     1.0200 c6         1 QZQ       0.000200
     17 C18          3.7950     0.6400     0.3220 c6         1 QZQ      -0.036700
     18 C23          4.5480     0.1550    -0.9500 c6         1 QZQ      -0.025000
     19 C05          5.4740     1.2650    -1.4660 c3         1 QZQ      -0.079100
     20 C06          3.6690    -0.2740    -2.1290 c3         1 QZQ      -0.079100
     21 C24          5.3980    -1.0630    -0.5610 c6         1 QZQ       0.188300
     22 O01          6.4970    -0.6450     0.2360 oh         1 QZQ      -0.600800
     23 C26          4.5790    -2.0880     0.1640 c2         1 QZQ      -0.250200
     24 C25          3.4810    -1.7930     0.8500 c2         1 QZQ      -0.105200
     25 C28          3.0630     1.9800     0.1880 c6         1 QZQ      -0.066400
     26 C27          1.6740     1.9130    -0.4330 c6         1 QZQ      -0.070400
     27 C22          0.7260     0.9420     0.2870 c6         1 QZQ      -0.015000
     28 C35          0.3780     1.5640     1.6580 c3         1 QZQ      -0.090100
     29 C33          2.9410    -0.1470     2.5380 c3         1 QZQ      -0.081100
     30 C34         -0.2820     0.0630    -1.9300 c3         1 QZQ      -0.084100
     31 C11         -3.8360     1.8300     0.8080 c          1 QZQ       0.933600
     32 O16         -4.0620     3.0540     0.6970 o          1 QZQ      -0.838800
     33 O1          -3.8650     1.1920     1.8800 o          1 QZQ      -0.838800
     34 H1          -3.9180    -1.2080     1.2970 hc         1 QZQ       0.087700
     35 H2          -2.7750    -2.7380    -2.0590 hc         1 QZQ       0.032033
     36 H3          -3.9640    -4.0280    -1.9070 hc         1 QZQ       0.032033
     37 H4          -4.4740    -2.3800    -2.2810 hc         1 QZQ       0.032033
     38 H5          -3.9910    -4.7150     0.3700 ha         1 QZQ       0.101000
     39 H6          -4.0700    -3.4740     1.7300 ha         1 QZQ       0.101000
     40 H7          -5.9400    -1.2800    -0.8180 hc         1 QZQ       0.031700
     41 H8          -5.8960    -0.2990     0.6290 hc         1 QZQ       0.031700
     42 H9          -4.8300     0.3740    -2.1330 hc         1 QZQ       0.024700
     43 H10         -5.6940     1.4400    -1.0310 hc         1 QZQ       0.024700
     44 H11         -2.6830     1.4250    -2.4400 hc         1 QZQ       0.026200
     45 H12         -3.1430     2.8940    -1.6090 hc         1 QZQ       0.026200
     46 H13         -0.6800     2.6120    -1.5960 hc         1 QZQ       0.037700
     47 H14         -1.3690     2.6750     0.0050 hc         1 QZQ       0.037700
     48 H15         -1.6880     0.2630     1.2410 hc         1 QZQ       0.094700
     49 H16         -2.7530    -0.6460    -1.4170 hc         1 QZQ       0.008700
     50 H17         -1.5080    -2.1570     1.1800 hc         1 QZQ       0.032700
     51 H18         -0.7980    -2.1350    -0.4050 hc         1 QZQ       0.032700
     52 H19          0.3620    -1.1300     2.2140 hc         1 QZQ       0.027700
     53 H20          0.9660    -2.4180     1.2140 hc         1 QZQ       0.027700
     54 H21          1.5520    -0.8190    -0.5660 hc         1 QZQ       0.044700
     55 H22          4.6100     0.8270     1.0300 hc         1 QZQ       0.049700
     56 H23          6.1930     0.8620    -2.1830 hc         1 QZQ       0.033367
     57 H24          4.9060     2.0380    -1.9860 hc         1 QZQ       0.033367
     58 H25          6.0350     1.7500    -0.6670 hc         1 QZQ       0.033367
     59 H26          2.9790    -1.0800    -1.8860 hc         1 QZQ       0.033367
     60 H27          3.0920     0.5610    -2.5220 hc         1 QZQ       0.033367
     61 H28          4.3010    -0.6310    -2.9460 hc         1 QZQ       0.033367
     62 H29          5.7790    -1.5120    -1.4920 h1         1 QZQ       0.024700
     63 H30          6.9440    -1.4310     0.5660 ho         1 QZQ       0.395000
     64 H31          4.9350    -3.1140     0.1460 ha         1 QZQ       0.111000
     65 H32          2.9780    -2.6010     1.3720 ha         1 QZQ       0.118000
     66 H33          2.9850     2.4220     1.1860 hc         1 QZQ       0.032700
     67 H34          3.6720     2.6870    -0.3800 hc         1 QZQ       0.032700
     68 H35          1.2420     2.9190    -0.4230 hc         1 QZQ       0.039700
     69 H36          1.7700     1.6380    -1.4840 hc         1 QZQ       0.039700
     70 H37          1.2000     2.1630     2.0470 hc         1 QZQ       0.038033
     71 H38         -0.4820     2.2290     1.5970 hc         1 QZQ       0.038033
     72 H39          0.1490     0.8240     2.4210 hc         1 QZQ       0.038033
     73 H40          2.2900    -0.8200     3.0960 hc         1 QZQ       0.033700
     74 H41          3.9580    -0.3010     2.9040 hc         1 QZQ       0.033700
     75 H42          2.6530     0.8710     2.7910 hc         1 QZQ       0.033700
     76 H43          0.4520     0.6430    -2.4890 hc         1 QZQ       0.022700
     77 H44          0.0870    -0.9580    -1.8710 hc         1 QZQ       0.022700
     78 H45         -1.1760     0.0340    -2.5520 hc         1 QZQ       0.022700
@<TRIPOS>BOND
     1     1     2 1   
     2     1     5 1   
     3     1    12 1   
     4     1    34 1   
     5     2     3 1   
     6     2     4 2   
     7     3    35 1   
     8     3    36 1   
     9     3    37 1   
    10     4    38 1   
    11     4    39 1   
    12     5     6 1   
    13     5    40 1   
    14     5    41 1   
    15     6     7 1   
    16     6    42 1   
    17     6    43 1   
    18     7     8 1   
    19     7    12 1   
    20     7    31 1   
    21     8     9 1   
    22     8    44 1   
    23     8    45 1   
    24     9    10 1   
    25     9    46 1   
    26     9    47 1   
    27    10    11 1   
    28    10    27 1   
    29    10    30 1   
    30    11    12 1   
    31    11    13 1   
    32    11    48 1   
    33    12    49 1   
    34    13    14 1   
    35    13    50 1   
    36    13    51 1   
    37    14    15 1   
    38    14    52 1   
    39    14    53 1   
    40    15    16 1   
    41    15    27 1   
    42    15    54 1   
    43    16    17 1   
    44    16    24 1   
    45    16    29 1   
    46    17    18 1   
    47    17    25 1   
    48    17    55 1   
    49    18    19 1   
    50    18    20 1   
    51    18    21 1   
    52    19    56 1   
    53    19    57 1   
    54    19    58 1   
    55    20    59 1   
    56    20    60 1   
    57    20    61 1   
    58    21    22 1   
    59    21    23 1   
    60    21    62 1   
    61    22    63 1   
    62    23    24 2   
    63    23    64 1   
    64    24    65 1   
    65    25    26 1   
    66    25    66 1   
    67    25    67 1   
    68    26    27 1   
    69    26    68 1   
    70    26    69 1   
    71    27    28 1   
    72    28    70 1   
    73    28    71 1   
    74    28    72 1   
    75    29    73 1   
    76    29    74 1   
    77    29    75 1   
    78    30    76 1   
    79    30    77 1   
    80    30    78 1   
    81    31    32 1   
    82    31    33 1   
@<TRIPOS>SUBSTRUCTURE
     1 QZQ         1 TEMP              0 ****  ****    0 ROOT
