@<TRIPOS>MOLECULE
QZQ
   78    82     1     0     0
SMALL
No Charge or Current Charge


@<TRIPOS>ATOM
      1 C01         -4.2920    -1.0900     0.2210 c5         1 QZQ      -0.025500
      2 C04         -4.3030    -2.6030    -0.0900 c2         1 QZQ      -0.078400
      3 C36         -4.1580    -3.1260    -1.5130 c3         1 QZQ      -0.055900
      4 C37         -4.4850    -3.4380     0.9470 c2         1 QZQ      -0.365000
      5 C07         -5.5570    -0.4110    -0.4260 c5         1 QZQ      -0.059400
      6 C02         -4.9840     0.6700    -1.3970 c5         1 QZQ      -0.050400
      7 C12         -3.6680     1.1000    -0.6750 c5         1 QZQ      -0.183000
      8 C2          -2.6750     1.9110    -1.5360 c6         1 QZQ      -0.035400
      9 C3          -1.2820     1.9760    -0.8400 c6         1 QZQ      -0.064400
     10 C19         -0.5930     0.5720    -0.5200 c6         1 QZQ      -0.021000
     11 C20         -1.6720    -0.3410     0.2400 c6         1 QZQ      -0.046700
     12 C21         -3.0830    -0.3320    -0.4450 c5         1 QZQ      -0.019700
     13 C15         -1.1660    -1.7840     0.4250 c6         1 QZQ      -0.067400
     14 C13          0.8130    -1.6860     1.2550 c6         1 QZQ      -0.068400
     15 C14          1.6350    -0.5860     0.5200 c6         1 QZQ      -0.039700
     16 C17          3.1420    -0.5070     1.0590 c6         1 QZQ       0.000200
     17 C18          3.9510     0.7080     0.3200 c6         1 QZQ      -0.036700
     18 C23          4.7470     0.3190    -1.0230 c6         1 QZQ      -0.025000
     19 C05          5.6410     1.5060    -1.5210 c3         1 QZQ      -0.079100
     20 C06          3.8580    -0.0760    -2.2480 c3         1 QZQ      -0.079100
     21 C24          5.6670    -0.9380    -0.6780 c6         1 QZQ       0.211500
     22 O01          6.7290    -0.5750     0.1980 oh         1 QZQ      -0.663000
     23 C26          4.9530    -2.0960     0.0250 c2         1 QZQ      -0.300200
     24 C25          3.8530    -1.8990     0.7960 c2         1 QZQ      -0.155200
     25 C28          3.1030     2.0810     0.2620 c6         1 QZQ      -0.066400
     26 C27          1.6870     1.8740    -0.3240 c6         1 QZQ      -0.070400
     27 C22          0.7830     0.7800     0.3750 c6         1 QZQ      -0.015000
     28 C35          0.4150     1.3470     1.8070 c3         1 QZQ      -0.090100
     29 C33          3.2730    -0.3050     2.6080 c3         1 QZQ      -0.081100
     30 C34         -0.2630    -0.0680    -1.9370 c3         1 QZQ      -0.084100
     31 C11         -4.0610     1.9080     0.6310 c          1 QZQ       0.723000
     32 O16         -4.7350     2.9220     0.5000 o          1 QZQ      -0.733500
     33 O1          -3.7140     1.5410     1.7440 o          1 QZQ      -0.733500
     34 H1          -4.2970    -0.9220     1.3030 hc         1 QZQ       0.087700
     35 H2          -3.1460    -2.9670    -1.9010 hc         1 QZQ       0.032033
     36 H3          -4.3520    -4.2040    -1.5660 hc         1 QZQ       0.032033
     37 H4          -4.8600    -2.6360    -2.1970 hc         1 QZQ       0.032033
     38 H5          -4.5180    -4.5190     0.8100 ha         1 QZQ       0.151000
     39 H6          -4.6050    -3.0790     1.9700 ha         1 QZQ       0.151000
     40 H7          -6.2100    -1.1170    -0.9510 hc         1 QZQ       0.031700
     41 H8          -6.1780     0.0520     0.3500 hc         1 QZQ       0.031700
     42 H9          -4.7830     0.2410    -2.3860 hc         1 QZQ       0.024700
     43 H10         -5.6830     1.5000    -1.5560 hc         1 QZQ       0.024700
     44 H11         -2.5890     1.4760    -2.5390 hc         1 QZQ       0.026200
     45 H12         -3.0570     2.9290    -1.6900 hc         1 QZQ       0.026200
     46 H13         -0.6350     2.5730    -1.4960 hc         1 QZQ       0.037700
     47 H14         -1.4070     2.5750     0.0670 hc         1 QZQ       0.037700
     48 H15         -1.8160     0.0570     1.2470 hc         1 QZQ       0.094700
     49 H16         -2.8910    -0.7840    -1.4210 hc         1 QZQ       0.008700
     50 H17         -1.8140    -2.3460     1.1090 hc         1 QZQ       0.032700
     51 H18         -1.1510    -2.3300    -0.5260 hc         1 QZQ       0.032700
     52 H19          0.7290    -1.4810     2.3280 hc         1 QZQ       0.027700
     53 H20          1.2710    -2.6760     1.1570 hc         1 QZQ       0.027700
     54 H21          1.7570    -0.9730    -0.4900 hc         1 QZQ       0.044700
     55 H22          4.7610     0.9650     1.0150 hc         1 QZQ       0.049700
     56 H23          6.3420     1.1750    -2.2970 hc         1 QZQ       0.033367
     57 H24          5.0440     2.3150    -1.9580 hc         1 QZQ       0.033367
     58 H25          6.2340     1.9390    -0.7080 hc         1 QZQ       0.033367
     59 H26          3.2120    -0.9320    -2.0400 hc         1 QZQ       0.033367
     60 H27          3.2420     0.7510    -2.6080 hc         1 QZQ       0.033367
     61 H28          4.4860    -0.3730    -3.0970 hc         1 QZQ       0.033367
     62 H29          6.0990    -1.3160    -1.6170 h1         1 QZQ       0.024700
     63 H30          6.3600    -0.6910     1.0980 ho         1 QZQ       0.434000
     64 H31          5.3860    -3.0890    -0.1010 ha         1 QZQ       0.161000
     65 H32          3.4230    -2.7600     1.3080 ha         1 QZQ       0.168000
     66 H33          2.9930     2.5520     1.2610 hc         1 QZQ       0.032700
     67 H34          3.5930     2.8850    -0.3230 hc         1 QZQ       0.032700
     68 H35          1.1910     2.8510    -0.2620 hc         1 QZQ       0.039700
     69 H36          1.7850     1.6830    -1.3910 hc         1 QZQ       0.039700
     70 H37          1.2790     1.7120     2.3590 hc         1 QZQ       0.038033
     71 H38         -0.2540     2.2090     1.7670 hc         1 QZQ       0.038033
     72 H39         -0.0680     0.6090     2.4530 hc         1 QZQ       0.038033
     73 H40          2.6920    -1.0290     3.1870 hc         1 QZQ       0.033700
     74 H41          4.3160    -0.4410     2.9190 hc         1 QZQ       0.033700
     75 H42          3.0010     0.6980     2.9410 hc         1 QZQ       0.033700
     76 H43          0.4140     0.5490    -2.5340 hc         1 QZQ       0.022700
     77 H44          0.1820    -1.0640    -1.8770 hc         1 QZQ       0.022700
     78 H45         -1.1500    -0.1970    -2.5630 hc         1 QZQ       0.022700
@<TRIPOS>BOND
     1     1     2 1   
     2     1     5 1   
     3     1    12 1   
     4     1    34 1   
     5     2     3 1   
     6     2     4 2   
     7     3    35 1   
     8     3    36 1   
     9     3    37 1   
    10     4    38 1   
    11     4    39 1   
    12     5     6 1   
    13     5    40 1   
    14     5    41 1   
    15     6     7 1   
    16     6    42 1   
    17     6    43 1   
    18     7     8 1   
    19     7    12 1   
    20     7    31 1   
    21     8     9 1   
    22     8    44 1   
    23     8    45 1   
    24     9    10 1   
    25     9    46 1   
    26     9    47 1   
    27    10    11 1   
    28    10    27 1   
    29    10    30 1   
    30    11    12 1   
    31    11    13 1   
    32    11    48 1   
    33    12    49 1   
    34    13    14 1   
    35    13    50 1   
    36    13    51 1   
    37    14    15 1   
    38    14    52 1   
    39    14    53 1   
    40    15    16 1   
    41    15    27 1   
    42    15    54 1   
    43    16    17 1   
    44    16    24 1   
    45    16    29 1   
    46    17    18 1   
    47    17    25 1   
    48    17    55 1   
    49    18    19 1   
    50    18    20 1   
    51    18    21 1   
    52    19    56 1   
    53    19    57 1   
    54    19    58 1   
    55    20    59 1   
    56    20    60 1   
    57    20    61 1   
    58    21    22 1   
    59    21    23 1   
    60    21    62 1   
    61    22    63 1   
    62    23    24 2   
    63    23    64 1   
    64    24    65 1   
    65    25    26 1   
    66    25    66 1   
    67    25    67 1   
    68    26    27 1   
    69    26    68 1   
    70    26    69 1   
    71    27    28 1   
    72    28    70 1   
    73    28    71 1   
    74    28    72 1   
    75    29    73 1   
    76    29    74 1   
    77    29    75 1   
    78    30    76 1   
    79    30    77 1   
    80    30    78 1   
    81    31    32 1   
    82    31    33 1   
@<TRIPOS>SUBSTRUCTURE
     1 QZQ         1 TEMP              0 ****  ****    0 ROOT
