@<TRIPOS>MOLECULE
QZR
   34    36     1     0     0
SMALL
No Charge or Current Charge


@<TRIPOS>ATOM
      1 C1          -7.6800    20.6410    48.4480 c3         1 QZR      -0.030900
      2 C2          -8.2840    20.5280    47.0770 cc         1 QZR      -0.050600
      3 C3          -8.7750    19.3940    46.4620 cd         1 QZR      -0.164200
      4 C7         -10.1150    14.9810    44.1410 ca         1 QZR      -0.175500
      5 C8         -10.7440    13.8570    43.5800 ca         1 QZR       0.018000
      6 C9         -11.9100    14.0200    42.8060 ca         1 QZR      -0.317500
      7 C10        -12.4370    15.3100    42.6010 ca         1 QZR       0.018000
      8 C11        -11.7980    16.4260    43.1660 ca         1 QZR      -0.175500
      9 C12        -11.9220    12.4410    40.4780 c3         1 QZR      -0.342100
     10 C13        -10.1640    20.4640    42.7590 ca         1 QZR       0.163900
     11 C14         -9.2050    20.9380    44.7710 ca         1 QZR       0.163300
     12 C4          -9.3070    19.6120    45.1310 ca         1 QZR      -0.221800
     13 C5          -9.8810    18.7090    44.2230 ca         1 QZR       0.418900
     14 N1          -9.9740    17.3530    44.5190 nu         1 QZR      -0.931900
     15 C6         -10.6280    16.2690    43.9290 ca         1 QZR       0.365000
     16 O1         -14.1260    12.9150    41.8150 o          1 QZR      -0.533000
     17 O2         -12.3450    11.3880    42.8410 o          1 QZR      -0.533000
     18 N2         -10.3070    19.1420    43.0180 nb         1 QZR      -0.253000
     19 N3          -9.6300    21.3980    43.5800 nb         1 QZR      -0.164000
     20 S2          -8.4580    21.9640    46.0250 ss         1 QZR      -0.108900
     21 H1          -8.4410    20.9190    49.1860 hc         1 QZR       0.052700
     22 H2          -7.2340    19.6900    48.7620 hc         1 QZR       0.052700
     23 H3          -6.8930    21.4040    48.4690 hc         1 QZR       0.052700
     24 H4          -8.7660    18.4260    46.9570 ha         1 QZR       0.198000
     25 H6          -9.2160    14.8450    44.7360 ha         1 QZR       0.137500
     26 H7         -10.3210    12.8670    43.7500 ha         1 QZR       0.136500
     27 H8         -13.3420    15.4550    42.0110 ha         1 QZR       0.136500
     28 H9         -12.2320    17.4090    43.0200 ha         1 QZR       0.137500
     29 H12        -10.8500    12.2930    40.6440 h1         1 QZR       0.101700
     30 H10        -12.3560    11.5830    39.9560 h1         1 QZR       0.101700
     31 H11        -12.1030    13.3670    39.9220 h1         1 QZR       0.101700
     32 H13        -10.5130    20.8120    41.7880 h5         1 QZR       0.055100
     33 H5          -9.3670    17.0850    45.2890 hn         1 QZR       0.502000
     34 S1         -12.7190    12.5840    42.0750 sy         1 QZR       1.090500
@<TRIPOS>BOND
     1     1     2 1   
     2     1    21 1   
     3     1    22 1   
     4     1    23 1   
     5     2     3 2   
     6     2    20 1   
     7     3    12 1   
     8     3    24 1   
     9     4     5 ar  
    10     4    15 ar  
    11     4    25 1   
    12     5     6 ar  
    13     5    26 1   
    14     6     7 ar  
    15     6    34 1   
    16     7     8 ar  
    17     7    27 1   
    18     8    15 ar  
    19     8    28 1   
    20     9    29 1   
    21     9    30 1   
    22     9    31 1   
    23     9    34 1   
    24    10    18 ar  
    25    10    19 ar  
    26    10    32 1   
    27    11    12 ar  
    28    11    19 ar  
    29    11    20 1   
    30    12    13 ar  
    31    13    14 1   
    32    13    18 ar  
    33    14    15 1   
    34    14    33 1   
    35    16    34 2   
    36    17    34 2   
@<TRIPOS>SUBSTRUCTURE
     1 QZR         1 TEMP              0 ****  ****    0 ROOT
