@<TRIPOS>MOLECULE
QZR
   34    36     1     0     0
SMALL
abcg2


@<TRIPOS>ATOM
      1 C1          -7.3310    20.5100    48.2490 c3         1 QZR      -0.030900
      2 C2          -8.1540    20.4200    47.0090 cc         1 QZR      -0.050600
      3 C3          -8.6140    19.3020    46.3890 cd         1 QZR      -0.164200
      4 C7         -10.3930    15.0570    44.2950 ca         1 QZR      -0.175500
      5 C8         -11.0140    13.9560    43.7440 ca         1 QZR       0.018000
      6 C9         -11.9080    14.1290    42.6890 ca         1 QZR      -0.317500
      7 C10        -12.1600    15.4000    42.1830 ca         1 QZR       0.018000
      8 C11        -11.5380    16.5100    42.7330 ca         1 QZR      -0.175500
      9 C12        -11.6440    12.1750    40.6910 c3         1 QZR      -0.342100
     10 C13        -10.7450    20.6170    43.1470 ca         1 QZR       0.163900
     11 C14         -9.4930    20.9600    44.9650 ca         1 QZR       0.163300
     12 C4          -9.3840    19.5850    45.2150 ca         1 QZR      -0.221800
     13 C5         -10.0540    18.7500    44.2870 ca         1 QZR       0.418900
     14 N1         -10.0000    17.3930    44.4580 nu         1 QZR      -0.931900
     15 C6         -10.6510    16.3500    43.8070 ca         1 QZR       0.365000
     16 O1         -13.9680    13.1710    41.3850 o          1 QZR      -0.533000
     17 O2         -12.7900    11.6840    42.9990 o          1 QZR      -0.533000
     18 N2         -10.7240    19.2840    43.2660 nb         1 QZR      -0.253000
     19 N3         -10.1640    21.5050    43.9420 nb         1 QZR      -0.164000
     20 S2          -8.6470    21.8810    46.1740 ss         1 QZR      -0.108900
     21 H1          -7.8540    21.0630    49.0330 hc         1 QZR       0.052700
     22 H2          -7.1150    19.5080    48.6190 hc         1 QZR       0.052700
     23 H3          -6.3850    21.0220    48.0620 hc         1 QZR       0.052700
     24 H4          -8.4050    18.3110    46.7700 ha         1 QZR       0.198000
     25 H6          -9.7060    14.9290    45.1230 ha         1 QZR       0.137500
     26 H7         -10.8170    12.9680    44.1370 ha         1 QZR       0.136500
     27 H8         -12.8530    15.5290    41.3640 ha         1 QZR       0.136500
     28 H9         -11.7390    17.4930    42.3460 ha         1 QZR       0.137500
     29 H12        -10.6840    11.9070    41.1270 h1         1 QZR       0.101700
     30 H10        -12.1200    11.3060    40.2350 h1         1 QZR       0.101700
     31 H11        -11.5340    12.9800    39.9670 h1         1 QZR       0.101700
     32 H13        -11.3010    21.0100    42.3030 h5         1 QZR       0.055100
     33 H5          -9.4310    17.0930    45.2350 hn         1 QZR       0.502000
     34 S1         -12.7230    12.7270    41.9900 sy         1 QZR       1.090500
@<TRIPOS>BOND
     1     1     2 1   
     2     1    21 1   
     3     1    22 1   
     4     1    23 1   
     5     2     3 2   
     6     2    20 1   
     7     3    12 1   
     8     3    24 1   
     9     4     5 ar  
    10     4    15 ar  
    11     4    25 1   
    12     5     6 ar  
    13     5    26 1   
    14     6     7 ar  
    15     6    34 1   
    16     7     8 ar  
    17     7    27 1   
    18     8    15 ar  
    19     8    28 1   
    20     9    29 1   
    21     9    30 1   
    22     9    31 1   
    23     9    34 1   
    24    10    18 ar  
    25    10    19 ar  
    26    10    32 1   
    27    11    12 ar  
    28    11    19 ar  
    29    11    20 1   
    30    12    13 ar  
    31    13    14 1   
    32    13    18 ar  
    33    14    15 1   
    34    14    33 1   
    35    16    34 2   
    36    17    34 2   
@<TRIPOS>SUBSTRUCTURE
     1 QZR         1 TEMP              0 ****  ****    0 ROOT
