@<TRIPOS>MOLECULE
QZS
   76    80     1     0     0
SMALL
abcg2


@<TRIPOS>ATOM
      1 C39          9.5330     0.3550    -0.6020 ca         1 QZS      -0.097000
      2 C40         10.5700     1.1030    -1.1400 ca         1 QZS      -0.019500
      3 C41         11.8330     1.0000    -0.5810 ca         1 QZS      -0.250500
      4 S44         13.1690     1.9590    -1.2450 sy         1 QZS       1.125600
      5 O47         14.4150     1.2240    -1.0850 o          1 QZS      -0.540000
      6 O45         12.7820     2.3900    -2.5810 o          1 QZS      -0.540000
      7 N46         13.2280     3.1980    -0.1580 n8         1 QZS      -1.006100
      8 C42         12.0840     0.1510     0.4900 ca         1 QZS      -0.019500
      9 C43         11.0490    -0.6090     1.0010 ca         1 QZS      -0.097000
     10 C38          9.7650    -0.4990     0.4710 ca         1 QZS      -0.099600
     11 C36          8.6860    -1.3640     1.0470 c          1 QZS       0.608700
     12 O37          8.9430    -2.4840     1.4610 o          1 QZS      -0.585100
     13 N35          7.4610    -0.8140     1.0710 ns         1 QZS      -0.501900
     14 C34          6.2760    -1.4940     1.5380 c3         1 QZS       0.141300
     15 C32          5.2330    -1.6520     0.4590 ca         1 QZS      -0.073300
     16 C33          3.8960    -1.4730     0.7740 ca         1 QZS      -0.139000
     17 C31          5.5900    -2.0090    -0.8420 ca         1 QZS      -0.131000
     18 C30          4.6040    -2.1800    -1.7970 ca         1 QZS      -0.072000
     19 C29          3.2590    -2.0050    -1.4890 ca         1 QZS      -0.195000
     20 C28          2.9030    -1.6520    -0.1910 ca         1 QZS       0.144100
     21 O27          1.6360    -1.4560     0.2250 os         1 QZS      -0.346100
     22 C27          0.5810    -1.5950    -0.7080 c3         1 QZS       0.168600
     23 C26         -0.7200    -1.3460     0.0290 c3         1 QZS      -0.102400
     24 C25         -1.8990    -1.5020    -0.9210 c3         1 QZS       0.082600
     25 N24         -3.1630    -1.2470    -0.2580 na         1 QZS       0.124800
     26 C20         -3.9460    -0.1600    -0.3450 cc         1 QZS      -0.205000
     27 N23         -3.6630    -2.1210     0.5950 nc         1 QZS      -0.196800
     28 N22         -4.7600    -1.6330     1.0660 nd         1 QZS      -0.354000
     29 C21         -4.9820    -0.4180     0.5170 cd         1 QZS       0.197300
     30 C50         -6.1880     0.4010     0.8200 c3         1 QZS      -0.092700
     31 C51         -7.4290    -0.2300     0.2130 c3         1 QZS       0.162600
     32 OB          -8.5300     0.6260     0.4940 os         1 QZS      -0.342100
     33 C8          -9.7460     0.2700     0.0920 ca         1 QZS       0.181100
     34 C9         -10.0500    -0.9050    -0.5490 ca         1 QZS      -0.228000
     35 C10        -11.3900    -1.1360    -0.9090 ca         1 QZS       0.281500
     36 C          -11.7810    -2.3800    -1.6090 c          1 QZS       0.482400
     37 O          -11.0120    -3.2590    -1.9140 o          1 QZS      -0.510100
     38 N11        -12.3740    -0.3070    -0.6710 nb         1 QZS      -0.672000
     39 C7         -12.0950     0.8500    -0.0430 ca         1 QZS       0.224000
     40 C6         -10.7860     1.2100     0.3640 ca         1 QZS      -0.040000
     41 C5         -10.5560     2.4440     0.9970 ca         1 QZS      -0.139000
     42 C4         -11.6210     3.2890     1.2070 ca         1 QZS      -0.055000
     43 C3         -12.9220     2.9540     0.8190 ca         1 QZS      -0.210000
     44 C2         -13.1900     1.7420     0.2010 ca         1 QZS       0.347000
     45 N          -14.4450     1.3540    -0.1430 nv         1 QZS      -1.081000
     46 H1           8.5530     0.4280    -1.0550 ha         1 QZS       0.130500
     47 H2          10.3840     1.7470    -1.9880 ha         1 QZS       0.141000
     48 H3          14.1240     3.6760    -0.1800 hn         1 QZS       0.475000
     49 H4          12.4700     3.8620    -0.2750 hn         1 QZS       0.475000
     50 H5          13.0730     0.0710     0.9200 ha         1 QZS       0.141000
     51 H6          11.2380    -1.2840     1.8250 ha         1 QZS       0.130500
     52 H7           7.3550     0.1540     0.8120 hn         1 QZS       0.318500
     53 H8           6.5760    -2.4720     1.9130 h1         1 QZS       0.070200
     54 H9           5.8550    -0.9470     2.3840 h1         1 QZS       0.070200
     55 H10          3.6070    -1.1850     1.7780 ha         1 QZS       0.127000
     56 H11          6.6290    -2.1510    -1.1080 ha         1 QZS       0.123000
     57 H12          4.8780    -2.4550    -2.8080 ha         1 QZS       0.115000
     58 H13          2.5190    -2.1430    -2.2650 ha         1 QZS       0.116000
     59 H14          0.6990    -0.8800    -1.5310 h1         1 QZS       0.035700
     60 H15          0.5820    -2.6010    -1.1430 h1         1 QZS       0.035700
     61 H16         -0.8170    -2.0560     0.8520 hc         1 QZS       0.077200
     62 H17         -0.7210    -0.3390     0.4530 hc         1 QZS       0.077200
     63 H18         -1.8290    -0.8010    -1.7520 h1         1 QZS       0.068700
     64 H19         -1.9360    -2.5070    -1.3410 h1         1 QZS       0.068700
     65 H20         -3.7240     0.6770    -0.9860 h4         1 QZS       0.168000
     66 H21         -6.3170     0.4920     1.9010 hc         1 QZS       0.067700
     67 H22         -6.0500     1.4080     0.4210 hc         1 QZS       0.067700
     68 H23         -7.3130    -0.3450    -0.8700 h1         1 QZS       0.051700
     69 H24         -7.5990    -1.2210     0.6440 h1         1 QZS       0.051700
     70 H25         -9.3040    -1.6520    -0.7810 ha         1 QZS       0.146000
     71 H26        -12.8600    -2.4380    -1.8340 h4         1 QZS       0.010200
     72 H27         -9.5620     2.7310     1.3080 ha         1 QZS       0.130000
     73 H28        -11.4540     4.2440     1.6890 ha         1 QZS       0.111000
     74 H29        -13.7320     3.6470     1.0070 ha         1 QZS       0.115000
     75 H30        -14.5270     0.5830    -0.7840 hn         1 QZS       0.477000
     76 H31        -15.1510     2.0640    -0.2350 hn         1 QZS       0.477000
@<TRIPOS>BOND
     1     1     2 ar  
     2     1    10 ar  
     3     1    46 1   
     4     2     3 ar  
     5     2    47 1   
     6     3     4 1   
     7     3     8 ar  
     8     4     5 2   
     9     4     6 2   
    10     4     7 1   
    11     7    48 1   
    12     7    49 1   
    13     8     9 ar  
    14     8    50 1   
    15     9    10 ar  
    16     9    51 1   
    17    10    11 1   
    18    11    12 2   
    19    11    13 1   
    20    13    14 1   
    21    13    52 1   
    22    14    15 1   
    23    14    53 1   
    24    14    54 1   
    25    15    16 ar  
    26    15    17 ar  
    27    16    20 ar  
    28    16    55 1   
    29    17    18 ar  
    30    17    56 1   
    31    18    19 ar  
    32    18    57 1   
    33    19    20 ar  
    34    19    58 1   
    35    20    21 1   
    36    21    22 1   
    37    22    23 1   
    38    22    59 1   
    39    22    60 1   
    40    23    24 1   
    41    23    61 1   
    42    23    62 1   
    43    24    25 1   
    44    24    63 1   
    45    24    64 1   
    46    25    26 1   
    47    25    27 1   
    48    26    29 2   
    49    26    65 1   
    50    27    28 2   
    51    28    29 1   
    52    29    30 1   
    53    30    31 1   
    54    30    66 1   
    55    30    67 1   
    56    31    32 1   
    57    31    68 1   
    58    31    69 1   
    59    32    33 1   
    60    33    34 ar  
    61    33    40 ar  
    62    34    35 ar  
    63    34    70 1   
    64    35    36 1   
    65    35    38 ar  
    66    36    37 2   
    67    36    71 1   
    68    38    39 ar  
    69    39    40 ar  
    70    39    44 ar  
    71    40    41 ar  
    72    41    42 ar  
    73    41    72 1   
    74    42    43 ar  
    75    42    73 1   
    76    43    44 ar  
    77    43    74 1   
    78    44    45 1   
    79    45    75 1   
    80    45    76 1   
@<TRIPOS>SUBSTRUCTURE
     1 QZS         1 TEMP              0 ****  ****    0 ROOT
