@<TRIPOS>MOLECULE
QZS
   76    80     1     0     0
SMALL
No Charge or Current Charge


@<TRIPOS>ATOM
      1 C39          8.1270     0.8590    -0.3800 ca         1 QZS      -0.097000
      2 C40          8.5350     2.1220    -0.8460 ca         1 QZS      -0.019500
      3 C41          9.5920     2.8050    -0.2130 ca         1 QZS      -0.250500
      4 S44         10.1120     4.4200    -0.8100 sy         1 QZS       1.125600
      5 O47         11.4670     4.7320    -0.3610 o          1 QZS      -0.540000
      6 O45          9.6800     4.6330    -2.1890 o          1 QZS      -0.540000
      7 N46          9.1800     5.4500     0.0450 n8         1 QZS      -1.006100
      8 C42         10.2340     2.2170     0.8930 ca         1 QZS      -0.019500
      9 C43          9.8250     0.9550     1.3570 ca         1 QZS      -0.097000
     10 C38          8.7680     0.2540     0.7300 ca         1 QZS      -0.099600
     11 C36          8.3570    -1.1070     1.2620 c          1 QZS       0.608700
     12 O37          8.9090    -1.6280     2.2220 o          1 QZS      -0.585100
     13 N35          7.3230    -1.7420     0.6120 ns         1 QZS      -0.501900
     14 C34          6.7970    -3.0540     0.9840 c3         1 QZS       0.141300
     15 C32          5.6540    -3.4650     0.0690 ca         1 QZS      -0.073300
     16 C33          4.3270    -3.1170     0.3890 ca         1 QZS      -0.139000
     17 C31          5.9120    -4.1860    -1.1120 ca         1 QZS      -0.131000
     18 C30          4.8560    -4.5590    -1.9600 ca         1 QZS      -0.072000
     19 C29          3.5340    -4.2120    -1.6350 ca         1 QZS      -0.195000
     20 C28          3.2660    -3.4860    -0.4540 ca         1 QZS       0.144100
     21 O27          1.9890    -3.1160    -0.0840 os         1 QZS      -0.346100
     22 C27          0.8370    -3.4430    -0.8760 c3         1 QZS       0.168600
     23 C26         -0.3970    -2.8730    -0.1550 c3         1 QZS      -0.102400
     24 C25         -1.7130    -3.1570    -0.9110 c3         1 QZS       0.082600
     25 N24         -2.8970    -2.6140    -0.2260 na         1 QZS       0.124800
     26 C20         -3.3810    -1.3320    -0.2900 cc         1 QZS      -0.205000
     27 N23         -3.6570    -3.3960     0.5910 nc         1 QZS      -0.196800
     28 N22         -4.6170    -2.6360     1.0470 nd         1 QZS      -0.354000
     29 C21         -4.4760    -1.3680     0.5240 cd         1 QZS       0.197300
     30 C50         -5.4230    -0.2490     0.8560 c3         1 QZS      -0.092700
     31 C51         -6.7830    -0.4140     0.1580 c3         1 QZS       0.162600
     32 OB          -7.5960     0.7140     0.5230 os         1 QZS      -0.342100
     33 C8          -8.8910     0.8790     0.0640 ca         1 QZS       0.181100
     34 C9          -9.4970    -0.0540    -0.7970 ca         1 QZS      -0.228000
     35 C10        -10.8160     0.1600    -1.2380 ca         1 QZS       0.281500
     36 C          -11.4880    -0.8380    -2.1710 c          1 QZS       0.482400
     37 O          -10.9560    -1.8640    -2.5950 o          1 QZS      -0.510100
     38 N11        -11.5230     1.2540    -0.8480 nb         1 QZS      -0.672000
     39 C7         -10.9580     2.1730    -0.0110 ca         1 QZS       0.224000
     40 C6          -9.6290     2.0130     0.4650 ca         1 QZS      -0.040000
     41 C5          -9.0590     2.9780     1.3260 ca         1 QZS      -0.139000
     42 C4          -9.7930     4.1040     1.7210 ca         1 QZS      -0.055000
     43 C3         -11.1050     4.2790     1.2610 ca         1 QZS      -0.210000
     44 C2         -11.6910     3.3320     0.4090 ca         1 QZS       0.347000
     45 N          -12.9890     3.5630    -0.0080 nv         1 QZS      -1.081000
     46 H1           7.3090     0.3660    -0.8970 ha         1 QZS       0.130500
     47 H2           8.0250     2.5650    -1.7000 ha         1 QZS       0.141000
     48 H3           9.8920     6.0690     0.4250 hn         1 QZS       0.475000
     49 H4           8.7900     6.0120    -0.7080 hn         1 QZS       0.475000
     50 H5          11.0500     2.7320     1.3970 ha         1 QZS       0.141000
     51 H6          10.3380     0.5200     2.2130 ha         1 QZS       0.130500
     52 H7           6.9040    -1.2660    -0.1750 hn         1 QZS       0.318500
     53 H8           7.6050    -3.7950     0.9260 h1         1 QZS       0.070200
     54 H9           6.4460    -3.0180     2.0250 h1         1 QZS       0.070200
     55 H10          4.1150    -2.5560     1.2950 ha         1 QZS       0.127000
     56 H11          6.9330    -4.4570    -1.3740 ha         1 QZS       0.123000
     57 H12          5.0640    -5.1170    -2.8710 ha         1 QZS       0.115000
     58 H13          2.7360    -4.5130    -2.3080 ha         1 QZS       0.116000
     59 H14          0.9150    -3.0000    -1.8780 h1         1 QZS       0.035700
     60 H15          0.7320    -4.5320    -0.9780 h1         1 QZS       0.035700
     61 H16         -0.4580    -3.3060     0.8500 hc         1 QZS       0.077200
     62 H17         -0.2750    -1.7900    -0.0360 hc         1 QZS       0.077200
     63 H18         -1.6630    -2.7150    -1.9140 h1         1 QZS       0.068700
     64 H19         -1.8420    -4.2410    -1.0300 h1         1 QZS       0.068700
     65 H20         -2.9340    -0.5410    -0.8760 h4         1 QZS       0.168000
     66 H21         -5.5780    -0.2030     1.9400 hc         1 QZS       0.067700
     67 H22         -4.9820     0.7100     0.5580 hc         1 QZS       0.067700
     68 H23         -6.6340    -0.4520    -0.9290 h1         1 QZS       0.051700
     69 H24         -7.2500    -1.3530     0.4830 h1         1 QZS       0.051700
     70 H25         -8.9700    -0.9410    -1.1330 ha         1 QZS       0.146000
     71 H26        -12.5310    -0.5840    -2.4650 h4         1 QZS       0.010200
     72 H27         -8.0420     2.8610     1.6950 ha         1 QZS       0.130000
     73 H28         -9.3440     4.8420     2.3840 ha         1 QZS       0.111000
     74 H29        -11.6680     5.1540     1.5740 ha         1 QZS       0.115000
     75 H30        -13.3500     2.9620    -0.7490 hn         1 QZS       0.477000
     76 H31        -13.3820     4.4990     0.0630 hn         1 QZS       0.477000
@<TRIPOS>BOND
     1     1     2 ar  
     2     1    10 ar  
     3     1    46 1   
     4     2     3 ar  
     5     2    47 1   
     6     3     4 1   
     7     3     8 ar  
     8     4     5 2   
     9     4     6 2   
    10     4     7 1   
    11     7    48 1   
    12     7    49 1   
    13     8     9 ar  
    14     8    50 1   
    15     9    10 ar  
    16     9    51 1   
    17    10    11 1   
    18    11    12 2   
    19    11    13 1   
    20    13    14 1   
    21    13    52 1   
    22    14    15 1   
    23    14    53 1   
    24    14    54 1   
    25    15    16 ar  
    26    15    17 ar  
    27    16    20 ar  
    28    16    55 1   
    29    17    18 ar  
    30    17    56 1   
    31    18    19 ar  
    32    18    57 1   
    33    19    20 ar  
    34    19    58 1   
    35    20    21 1   
    36    21    22 1   
    37    22    23 1   
    38    22    59 1   
    39    22    60 1   
    40    23    24 1   
    41    23    61 1   
    42    23    62 1   
    43    24    25 1   
    44    24    63 1   
    45    24    64 1   
    46    25    26 1   
    47    25    27 1   
    48    26    29 2   
    49    26    65 1   
    50    27    28 2   
    51    28    29 1   
    52    29    30 1   
    53    30    31 1   
    54    30    66 1   
    55    30    67 1   
    56    31    32 1   
    57    31    68 1   
    58    31    69 1   
    59    32    33 1   
    60    33    34 ar  
    61    33    40 ar  
    62    34    35 ar  
    63    34    70 1   
    64    35    36 1   
    65    35    38 ar  
    66    36    37 2   
    67    36    71 1   
    68    38    39 ar  
    69    39    40 ar  
    70    39    44 ar  
    71    40    41 ar  
    72    41    42 ar  
    73    41    72 1   
    74    42    43 ar  
    75    42    73 1   
    76    43    44 ar  
    77    43    74 1   
    78    44    45 1   
    79    45    75 1   
    80    45    76 1   
@<TRIPOS>SUBSTRUCTURE
     1 QZS         1 TEMP              0 ****  ****    0 ROOT
