@<TRIPOS>MOLECULE
QZT
   14    14     1     0     0
SMALL
No Charge or Current Charge


@<TRIPOS>ATOM
      1 C           20.1850    31.5850    -9.6120 c5         1 QZT      -0.016600
      2 O           20.7690    31.7790    -6.9480 o          1 QZT      -0.504000
      3 C1          19.4550    32.9210    -9.9090 c5         1 QZT      -0.061900
      4 C2          20.6340    33.9200   -10.0570 c5         1 QZT      -0.061900
      5 C3          21.3930    33.7700    -8.7090 c5         1 QZT      -0.016600
      6 S           21.4560    31.9440    -8.2850 s4         1 QZT       0.124400
      7 H1          19.5110    30.7990    -9.2510 h1         1 QZT       0.079200
      8 H2          20.7290    31.2110   -10.4900 h1         1 QZT       0.079200
      9 H4          18.7830    33.2040    -9.0890 hc         1 QZT       0.054950
     10 H5          18.8480    32.8590   -10.8200 hc         1 QZT       0.054950
     11 H6          21.2750    33.6600   -10.9080 hc         1 QZT       0.054950
     12 H7          20.2890    34.9480   -10.2160 hc         1 QZT       0.054950
     13 H8          22.4210    34.1520    -8.7610 h1         1 QZT       0.079200
     14 H9          20.8710    34.2750    -7.8870 h1         1 QZT       0.079200
@<TRIPOS>BOND
     1     1     3 1   
     2     1     6 1   
     3     1     7 1   
     4     1     8 1   
     5     2     6 2   
     6     3     4 1   
     7     3     9 1   
     8     3    10 1   
     9     4     5 1   
    10     4    11 1   
    11     4    12 1   
    12     5     6 1   
    13     5    13 1   
    14     5    14 1   
@<TRIPOS>SUBSTRUCTURE
     1 QZT         1 TEMP              0 ****  ****    0 ROOT
