@<TRIPOS>MOLECULE
QZT
   14    14     1     0     0
SMALL
abcg2


@<TRIPOS>ATOM
      1 C           20.2590    31.5760    -9.6010 c5         1 QZT      -0.016600
      2 O           20.2620    32.1430    -6.9930 o          1 QZT      -0.504000
      3 C1          19.4790    32.8380    -9.9240 c5         1 QZT      -0.061900
      4 C2          20.5130    33.9620    -9.9270 c5         1 QZT      -0.061900
      5 C3          21.5200    33.6970    -8.7970 c5         1 QZT      -0.016600
      6 S           21.2450    32.0050    -8.1340 s4         1 QZT       0.124400
      7 H1          19.6550    30.7010    -9.3610 h1         1 QZT       0.079200
      8 H2          20.9580    31.3170   -10.3990 h1         1 QZT       0.079200
      9 H4          18.7180    33.0080    -9.1610 hc         1 QZT       0.054950
     10 H5          18.9690    32.7540   -10.8840 hc         1 QZT       0.054950
     11 H6          21.0400    33.9660   -10.8820 hc         1 QZT       0.054950
     12 H7          20.0460    34.9400    -9.8100 hc         1 QZT       0.054950
     13 H8          22.5550    33.7620    -9.1330 h1         1 QZT       0.079200
     14 H9          21.4000    34.3570    -7.9380 h1         1 QZT       0.079200
@<TRIPOS>BOND
     1     1     3 1   
     2     1     6 1   
     3     1     7 1   
     4     1     8 1   
     5     2     6 2   
     6     3     4 1   
     7     3     9 1   
     8     3    10 1   
     9     4     5 1   
    10     4    11 1   
    11     4    12 1   
    12     5     6 1   
    13     5    13 1   
    14     5    14 1   
@<TRIPOS>SUBSTRUCTURE
     1 QZT         1 TEMP              0 ****  ****    0 ROOT
