@<TRIPOS>MOLECULE
QZU
   50    53     1     0     0
SMALL
abcg2


@<TRIPOS>ATOM
      1 N1         -19.9850     4.9670    27.3860 ns         1 QZU      -0.160000
      2 C4         -23.3260     6.3430    30.0700 c6         1 QZU       0.164600
      3 C5         -22.1490     6.1100    29.1470 c6         1 QZU      -0.105400
      4 C6         -21.8370     4.6010    28.9490 c6         1 QZU      -0.089700
      5 C7         -22.6490     3.9770    27.7750 c3         1 QZU       0.111000
      6 C8         -25.0090     4.6600    27.5360 c          1 QZU       0.598300
      7 C10        -27.4360     5.0670    27.6050 c2         1 QZU      -0.224000
      8 C13        -17.7130     4.1610    27.0770 ca         1 QZU       0.325900
      9 C15        -17.0260     6.3920    25.6410 ca         1 QZU      -0.086000
     10 C17        -17.5340     8.5460    24.6720 ca         1 QZU      -0.110000
     11 C20        -18.3490     6.3030    26.1600 ca         1 QZU      -0.029000
     12 C21        -22.1220     3.8310    30.2270 ca         1 QZU      -0.135300
     13 C22        -21.7910     2.4770    30.3160 ca         1 QZU      -0.055000
     14 O2         -19.4940     4.1660    29.4520 o          1 QZU      -0.552100
     15 C11        -20.3220     4.5270    28.6320 c          1 QZU       0.604100
     16 O          -23.0990     5.7470    31.3560 os         1 QZU      -0.344100
     17 N          -24.0620     3.8410    28.0490 ns         1 QZU      -0.504900
     18 C9         -26.3950     4.3220    27.9590 ce         1 QZU      -0.303200
     19 O1         -24.7420     5.6090    26.7960 o          1 QZU      -0.617100
     20 C3         -22.7200     4.4380    31.3350 ca         1 QZU       0.149100
     21 C2         -22.9450     3.7130    32.5080 ca         1 QZU      -0.134000
     22 C1         -22.5980     2.3770    32.5890 ca         1 QZU      -0.064000
     23 C          -22.0280     1.7660    31.4770 ca         1 QZU       0.091000
     24 CL         -21.5960     0.0670    31.5530 cl         1 QZU      -0.209000
     25 C12        -18.6750     5.1270    26.8910 ca         1 QZU      -0.079000
     26 C19        -19.2420     7.3760    25.9320 ca         1 QZU      -0.111000
     27 C18        -18.8390     8.4680    25.2030 ca         1 QZU      -0.087000
     28 C16        -16.6420     7.5280    24.8910 ca         1 QZU      -0.079000
     29 C14        -16.1280     5.3320    25.9080 ca         1 QZU       0.347900
     30 N2         -16.4480     4.2630    26.6000 nb         1 QZU      -0.645000
     31 H1         -20.7190     5.3280    26.7990 hn         1 QZU       0.156000
     32 H2         -23.4590     7.4060    30.2620 h1         1 QZU       0.062200
     33 H3         -24.2530     5.9410    29.6630 h1         1 QZU       0.062200
     34 H4         -21.2770     6.6030    29.5820 hc         1 QZU       0.069200
     35 H5         -22.3460     6.5800    28.1840 hc         1 QZU       0.069200
     36 H6         -22.2440     2.9900    27.5490 h1         1 QZU       0.064200
     37 H7         -22.5650     4.5910    26.8820 h1         1 QZU       0.064200
     38 H8         -27.3040     5.9460    26.9860 ha         1 QZU       0.179000
     39 H9         -28.4400     4.8190    27.9240 ha         1 QZU       0.179000
     40 H10        -17.9500     3.2610    27.6260 h4         1 QZU       0.039100
     41 H11        -17.2400     9.4150    24.0980 ha         1 QZU       0.119000
     42 H12        -21.3280     1.9810    29.4750 ha         1 QZU       0.129000
     43 H13        -24.3560     3.0950    28.6600 hn         1 QZU       0.323500
     44 H14        -26.5230     3.4450    28.5840 ha         1 QZU       0.180000
     45 H15        -23.4040     4.2150    33.3500 ha         1 QZU       0.134000
     46 H16        -22.7760     1.8160    33.4950 ha         1 QZU       0.133000
     47 H17        -20.2430     7.3510    26.3410 ha         1 QZU       0.112000
     48 H18        -19.5300     9.2850    25.0370 ha         1 QZU       0.117000
     49 H19        -15.6330     7.5780    24.5000 ha         1 QZU       0.120000
     50 H20        -15.1140     5.3940    25.5220 h4         1 QZU       0.022100
@<TRIPOS>BOND
     1     1    15 1   
     2     1    25 1   
     3     1    31 1   
     4     2     3 1   
     5     2    16 1   
     6     2    32 1   
     7     2    33 1   
     8     3     4 1   
     9     3    34 1   
    10     3    35 1   
    11     4     5 1   
    12     4    12 1   
    13     4    15 1   
    14     5    17 1   
    15     5    36 1   
    16     5    37 1   
    17     6    17 1   
    18     6    18 1   
    19     6    19 2   
    20     7    18 2   
    21     7    38 1   
    22     7    39 1   
    23     8    25 ar  
    24     8    30 ar  
    25     8    40 1   
    26     9    11 ar  
    27     9    28 ar  
    28     9    29 ar  
    29    10    27 ar  
    30    10    28 ar  
    31    10    41 1   
    32    11    25 ar  
    33    11    26 ar  
    34    12    13 ar  
    35    12    20 ar  
    36    13    23 ar  
    37    13    42 1   
    38    14    15 2   
    39    16    20 1   
    40    17    43 1   
    41    18    44 1   
    42    20    21 ar  
    43    21    22 ar  
    44    21    45 1   
    45    22    23 ar  
    46    22    46 1   
    47    23    24 1   
    48    26    27 ar  
    49    26    47 1   
    50    27    48 1   
    51    28    49 1   
    52    29    30 ar  
    53    29    50 1   
@<TRIPOS>SUBSTRUCTURE
     1 QZU         1 TEMP              0 ****  ****    0 ROOT
