@<TRIPOS>MOLECULE
QZU
   50    53     1     0     0
SMALL
No Charge or Current Charge


@<TRIPOS>ATOM
      1 N1         -19.8080     5.1930    27.5590 ns         1 QZU      -0.160000
      2 C4         -23.3890     6.3670    29.6110 c6         1 QZU       0.164600
      3 C5         -22.2970     5.9720    28.6040 c6         1 QZU      -0.105400
      4 C6         -21.9910     4.4240    28.5990 c6         1 QZU      -0.089700
      5 C7         -22.9880     3.6680    27.6510 c3         1 QZU       0.111000
      6 C8         -25.4370     4.2640    27.5660 c          1 QZU       0.598300
      7 C10        -27.8630     4.7580    28.0120 c2         1 QZU      -0.224000
      8 C13        -17.5360     4.2400    27.1830 ca         1 QZU       0.325900
      9 C15        -16.7700     6.5040    25.8190 ca         1 QZU      -0.086000
     10 C17        -17.1960     8.7250    24.9150 ca         1 QZU      -0.110000
     11 C20        -18.0870     6.4450    26.3250 ca         1 QZU      -0.029000
     12 C21        -22.1300     3.8550    30.0510 ca         1 QZU      -0.135300
     13 C22        -21.8460     2.4940    30.3310 ca         1 QZU      -0.055000
     14 O2         -20.1380     2.9640    27.9150 o          1 QZU      -0.552100
     15 C11        -20.5570     4.1110    28.0120 c          1 QZU       0.604100
     16 O          -22.9840     5.9700    30.9280 os         1 QZU      -0.344100
     17 N          -24.3710     3.6170    28.1410 ns         1 QZU      -0.504900
     18 C9         -26.7240     4.0780    28.2920 ce         1 QZU      -0.303200
     19 O1         -25.3270     4.9640    26.5710 o          1 QZU      -0.617100
     20 C3         -22.5810     4.6700    31.1260 ca         1 QZU       0.149100
     21 C2         -22.6560     4.1620    32.4330 ca         1 QZU      -0.134000
     22 C1         -22.3290     2.8230    32.6940 ca         1 QZU      -0.064000
     23 C          -21.9390     1.9880    31.6380 ca         1 QZU       0.091000
     24 Cl         -21.5650     0.2980    31.9510 cl         1 QZU      -0.209000
     25 C12        -18.4880     5.2780    27.0210 ca         1 QZU      -0.079000
     26 C19        -18.9560     7.5410    26.1150 ca         1 QZU      -0.111000
     27 C18        -18.5080     8.6740    25.4130 ca         1 QZU      -0.087000
     28 C16        -16.3270     7.6410    25.1170 ca         1 QZU      -0.079000
     29 C14        -15.9060     5.4120    26.0270 ca         1 QZU       0.347900
     30 N2         -16.2730     4.2980    26.6980 nb         1 QZU      -0.645000
     31 H1         -20.2760     6.0850    27.6330 hn         1 QZU       0.156000
     32 H2         -23.5410     7.4560    29.5990 h1         1 QZU       0.062200
     33 H3         -24.3480     5.8930    29.3710 h1         1 QZU       0.062200
     34 H4         -21.4130     6.5470    28.9110 hc         1 QZU       0.069200
     35 H5         -22.5660     6.3260    27.5990 hc         1 QZU       0.069200
     36 H6         -22.6550     2.6290    27.5300 h1         1 QZU       0.064200
     37 H7         -22.9590     4.1290    26.6550 h1         1 QZU       0.064200
     38 H8         -27.9150     5.4900    27.2040 ha         1 QZU       0.179000
     39 H9         -28.7800     4.6040    28.5840 ha         1 QZU       0.179000
     40 H10        -17.7670     3.3330    27.7370 h4         1 QZU       0.039100
     41 H11        -16.8540     9.6030    24.3730 ha         1 QZU       0.119000
     42 H12        -21.5550     1.8080    29.5410 ha         1 QZU       0.129000
     43 H13        -24.5620     3.0790    28.9770 hn         1 QZU       0.323500
     44 H14        -26.7040     3.3690    29.1190 ha         1 QZU       0.180000
     45 H15        -22.9890     4.8060    33.2420 ha         1 QZU       0.134000
     46 H16        -22.3980     2.4280    33.7050 ha         1 QZU       0.133000
     47 H17        -19.9780     7.5310    26.4830 ha         1 QZU       0.112000
     48 H18        -19.1810     9.5140    25.2540 ha         1 QZU       0.117000
     49 H19        -15.3110     7.6860    24.7280 ha         1 QZU       0.120000
     50 H20        -14.8850     5.4290    25.6480 h4         1 QZU       0.022100
@<TRIPOS>BOND
     1     1    15 1   
     2     1    25 1   
     3     1    31 1   
     4     2     3 1   
     5     2    16 1   
     6     2    32 1   
     7     2    33 1   
     8     3     4 1   
     9     3    34 1   
    10     3    35 1   
    11     4     5 1   
    12     4    12 1   
    13     4    15 1   
    14     5    17 1   
    15     5    36 1   
    16     5    37 1   
    17     6    17 1   
    18     6    18 1   
    19     6    19 2   
    20     7    18 2   
    21     7    38 1   
    22     7    39 1   
    23     8    25 ar  
    24     8    30 ar  
    25     8    40 1   
    26     9    11 ar  
    27     9    28 ar  
    28     9    29 ar  
    29    10    27 ar  
    30    10    28 ar  
    31    10    41 1   
    32    11    25 ar  
    33    11    26 ar  
    34    12    13 ar  
    35    12    20 ar  
    36    13    23 ar  
    37    13    42 1   
    38    14    15 2   
    39    16    20 1   
    40    17    43 1   
    41    18    44 1   
    42    20    21 ar  
    43    21    22 ar  
    44    21    45 1   
    45    22    23 ar  
    46    22    46 1   
    47    23    24 1   
    48    26    27 ar  
    49    26    47 1   
    50    27    48 1   
    51    28    49 1   
    52    29    30 ar  
    53    29    50 1   
@<TRIPOS>SUBSTRUCTURE
     1 QZU         1 TEMP              0 ****  ****    0 ROOT
