@<TRIPOS>MOLECULE
QZV
   96   101     1     0     0
SMALL
abcg2


@<TRIPOS>ATOM
      1 C10          3.4390    20.9620   -11.7080 ca         1 QZV      -0.108750
      2 C13          7.0500    21.6370   -12.5160 c          1 QZV       0.617700
      3 C15          9.0750    21.6340   -13.9090 c3         1 QZV       0.097000
      4 C22          3.6470    20.8750   -18.7880 c3         1 QZV       0.097000
      5 C24          1.7120    22.2540   -19.6330 c          1 QZV       0.617700
      6 C26          3.3990    22.6500   -21.4710 ca         1 QZV      -0.078250
      7 C28          2.8350    22.1890   -23.7700 ca         1 QZV       0.085000
      8 C02          1.0320    14.8780    -8.9160 c          1 QZV       0.729500
      9 C05         -0.2400    16.2870   -10.6220 cc         1 QZV       0.040100
     10 C06         -0.0530    17.6020   -10.9250 cd         1 QZV       0.079400
     11 C07          1.1330    18.3200   -11.1340 ch         1 QZV      -0.035800
     12 C08          2.1760    18.8990   -11.3340 cg         1 QZV      -0.160000
     13 C09          3.3990    19.5680   -11.5980 ca         1 QZV       0.085000
     14 C11          4.6310    21.6040   -11.9840 ca         1 QZV      -0.078250
     15 C12          5.8030    20.8770   -12.1860 ca         1 QZV      -0.167100
     16 C16          8.7890    22.0940   -15.3290 c3         1 QZV       0.135600
     17 C18          6.7870    22.9080   -16.3390 c3         1 QZV       0.123600
     18 C19          5.7640    21.8250   -15.9920 c3         1 QZV       0.123600
     19 C25          2.1600    22.1660   -21.0580 ca         1 QZV      -0.167100
     20 C27          3.7350    22.6700   -22.8140 ca         1 QZV      -0.108750
     21 C29          3.1620    22.2190   -25.1510 cg         1 QZV      -0.160000
     22 C30          3.4130    22.2750   -26.3320 ch         1 QZV      -0.035800
     23 C31          3.6590    22.3450   -27.7110 cd         1 QZV       0.079400
     24 C32          2.9510    21.8390   -28.7580 cc         1 QZV       0.040100
     25 C33          1.7080    21.0360   -28.7180 c3         1 QZV      -0.186700
     26 C34          0.4270    21.8200   -29.1260 c          1 QZV       0.729500
     27 C37          3.6700    22.2550   -29.9260 ca         1 QZV      -0.101300
     28 C38          3.4800    22.0820   -31.2990 ca         1 QZV      -0.014000
     29 C39          4.3930    22.6340   -32.1820 ca         1 QZV      -0.131800
     30 C40          4.2280    22.4780   -33.6670 c3         1 QZV      -0.032300
     31 C41          5.4890    23.3630   -31.6770 ca         1 QZV      -0.095000
     32 C42          5.6960    23.5540   -30.3220 ca         1 QZV      -0.127000
     33 C43          4.7640    22.9860   -29.4690 ca         1 QZV       0.074600
     34 C45          1.5940    21.6960   -23.3520 ca         1 QZV      -0.108750
     35 C46          1.2570    21.7040   -22.0120 ca         1 QZV      -0.078250
     36 C49          5.7640    19.4890   -12.0630 ca         1 QZV      -0.078250
     37 C50          4.5800    18.8390   -11.7640 ca         1 QZV      -0.108750
     38 C52         -2.2100    17.3800   -10.8020 ca         1 QZV       0.074600
     39 C53         -3.5750    17.6170   -10.8090 ca         1 QZV      -0.127000
     40 C54         -4.3910    16.5320   -10.5430 ca         1 QZV      -0.095000
     41 C55         -3.8790    15.2460   -10.2760 ca         1 QZV      -0.131800
     42 C56         -4.8270    14.1170    -9.9900 c3         1 QZV      -0.032300
     43 C57         -2.5080    15.0470   -10.2730 ca         1 QZV      -0.014000
     44 C58         -1.6620    16.1250   -10.5440 ca         1 QZV      -0.101300
     45 N14          7.9270    20.9940   -13.3100 ns         1 QZV      -0.499900
     46 N23          2.5350    21.7970   -18.6710 ns         1 QZV      -0.499900
     47 O01          2.0540    14.2040    -8.6980 o          1 QZV      -0.717500
     48 O03          0.1810    15.2600    -8.0940 o          1 QZV      -0.717500
     49 O17          7.7450    23.0390   -15.3170 os         1 QZV      -0.445000
     50 O20          4.6570    21.8090   -16.8580 os         1 QZV      -0.445000
     51 O35         -0.5930    21.1200   -29.2620 o          1 QZV      -0.717500
     52 O36          0.5330    23.0500   -29.2660 o          1 QZV      -0.717500
     53 O44          4.7640    23.0450   -28.1220 os         1 QZV      -0.177700
     54 O47          0.6260    22.7550   -19.3740 o          1 QZV      -0.596600
     55 O48          7.2280    22.7630   -12.0780 o          1 QZV      -0.596600
     56 O51         -1.2370    18.2840   -11.0340 os         1 QZV      -0.177700
     57 H101         2.5320    21.5380   -11.5760 ha         1 QZV       0.128500
     58 H151         9.9090    20.9310   -13.9300 h1         1 QZV       0.059700
     59 H152         9.3760    22.4730   -13.2840 h1         1 QZV       0.059700
     60 H211         5.6970    20.6520   -18.2390 h1         1 QZV       0.028450
     61 H212         5.2770    22.2830   -18.7810 h1         1 QZV       0.028450
     62 H222         3.3850    19.9420   -18.2820 h1         1 QZV       0.059700
     63 H221         3.8200    20.6270   -19.8340 h1         1 QZV       0.059700
     64 H261         4.1040    23.0380   -20.7460 ha         1 QZV       0.117250
     65 H042         0.5330    14.3450   -10.9490 hc         1 QZV       0.040950
     66 H041         1.7510    15.5890   -10.8440 hc         1 QZV       0.040950
     67 H111         4.6450    22.6830   -12.0620 ha         1 QZV       0.117250
     68 H161         8.5400    21.2190   -15.9410 h1         1 QZV       0.028450
     69 H162         9.7010    22.5290   -15.7550 h1         1 QZV       0.028450
     70 H182         7.2620    22.7090   -17.3080 h1         1 QZV       0.051450
     71 H181         6.2750    23.8700   -16.4220 h1         1 QZV       0.051450
     72 H192         5.3690    22.0240   -14.9930 h1         1 QZV       0.051450
     73 H191         6.2460    20.8380   -15.9630 h1         1 QZV       0.051450
     74 H271         4.6930    23.0640   -23.1250 ha         1 QZV       0.128500
     75 H331         1.5550    20.6320   -27.7120 hc         1 QZV       0.040950
     76 H332         1.8100    20.1680   -29.3760 hc         1 QZV       0.040950
     77 H381         2.6330    21.5180   -31.6700 ha         1 QZV       0.131500
     78 H401         4.0360    23.4390   -34.1470 hc         1 QZV       0.030367
     79 H402         5.1260    22.0650   -34.1260 hc         1 QZV       0.030367
     80 H403         3.3960    21.8170   -33.9070 hc         1 QZV       0.030367
     81 H411         6.1970    23.7900   -32.3770 ha         1 QZV       0.094000
     82 H421         6.5440    24.1170   -29.9550 ha         1 QZV       0.115000
     83 H451         0.8910    21.3240   -24.0850 ha         1 QZV       0.128500
     84 H461         0.2860    21.3380   -21.7060 ha         1 QZV       0.117250
     85 H491         6.6620    18.8930   -12.1740 ha         1 QZV       0.117250
     86 H501         4.5660    17.7620   -11.6650 ha         1 QZV       0.128500
     87 H531        -3.9870    18.5980   -11.0100 ha         1 QZV       0.115000
     88 H541        -5.4640    16.6770   -10.5370 ha         1 QZV       0.094000
     89 H562        -5.4870    13.9290   -10.8380 hc         1 QZV       0.030367
     90 H561        -4.2920    13.1930    -9.7740 hc         1 QZV       0.030367
     91 H563        -5.4640    14.3410    -9.1330 hc         1 QZV       0.030367
     92 H571        -2.0990    14.0660   -10.0670 ha         1 QZV       0.131500
     93 H141         7.6420    20.1210   -13.7260 hn         1 QZV       0.314000
     94 H231         2.1840    21.9270   -17.7330 hn         1 QZV       0.314000
     95 C04          0.8050    15.2590   -10.4100 c3         1 QZV      -0.186700
     96 C21          4.9240    21.4300   -18.1890 c3         1 QZV       0.135600
@<TRIPOS>BOND
     1     1    13 ar  
     2     1    14 ar  
     3     1    57 1   
     4     2    15 1   
     5     2    45 1   
     6     2    55 2   
     7     3    16 1   
     8     3    45 1   
     9     3    58 1   
    10     3    59 1   
    11     4    46 1   
    12     4    62 1   
    13     4    63 1   
    14     4    96 1   
    15     5    19 1   
    16     5    46 1   
    17     5    54 2   
    18     6    19 ar  
    19     6    20 ar  
    20     6    64 1   
    21     7    20 ar  
    22     7    21 1   
    23     7    34 ar  
    24     8    47 1   
    25     8    48 1   
    26     8    95 1   
    27     9    10 2   
    28     9    44 1   
    29     9    95 1   
    30    10    11 1   
    31    10    56 1   
    32    11    12 3   
    33    12    13 1   
    34    13    37 ar  
    35    14    15 ar  
    36    14    67 1   
    37    15    36 ar  
    38    16    49 1   
    39    16    68 1   
    40    16    69 1   
    41    17    18 1   
    42    17    49 1   
    43    17    70 1   
    44    17    71 1   
    45    18    50 1   
    46    18    72 1   
    47    18    73 1   
    48    19    35 ar  
    49    20    74 1   
    50    21    22 3   
    51    22    23 1   
    52    23    24 2   
    53    23    53 1   
    54    24    25 1   
    55    24    27 1   
    56    25    26 1   
    57    25    75 1   
    58    25    76 1   
    59    26    51 1   
    60    26    52 1   
    61    27    28 ar  
    62    27    33 ar  
    63    28    29 ar  
    64    28    77 1   
    65    29    30 1   
    66    29    31 ar  
    67    30    78 1   
    68    30    79 1   
    69    30    80 1   
    70    31    32 ar  
    71    31    81 1   
    72    32    33 ar  
    73    32    82 1   
    74    33    53 1   
    75    34    35 ar  
    76    34    83 1   
    77    35    84 1   
    78    36    37 ar  
    79    36    85 1   
    80    37    86 1   
    81    38    39 ar  
    82    38    44 ar  
    83    38    56 1   
    84    39    40 ar  
    85    39    87 1   
    86    40    41 ar  
    87    40    88 1   
    88    41    42 1   
    89    41    43 ar  
    90    42    89 1   
    91    42    90 1   
    92    42    91 1   
    93    43    44 ar  
    94    43    92 1   
    95    45    93 1   
    96    46    94 1   
    97    50    96 1   
    98    60    96 1   
    99    61    96 1   
   100    65    95 1   
   101    66    95 1   
@<TRIPOS>SUBSTRUCTURE
     1 QZV         1 TEMP              0 ****  ****    0 ROOT
