@<TRIPOS>MOLECULE
QZV
   96   101     1     0     0
SMALL
No Charge or Current Charge


@<TRIPOS>ATOM
      1 C10          3.0950    19.8980   -10.4490 ca         1 QZV      -0.108750
      2 C13          5.2850    20.0780   -13.5900 c          1 QZV       0.617700
      3 C15          6.5010    19.5370   -15.7440 c3         1 QZV       0.097000
      4 C22          1.2950    21.2670   -21.4800 c3         1 QZV       0.097000
      5 C24          0.7800    23.7200   -21.9780 c          1 QZV       0.617700
      6 C26          2.9180    23.2560   -23.3140 ca         1 QZV      -0.078250
      7 C28          3.0850    23.8970   -25.6600 ca         1 QZV       0.085000
      8 C02          1.3260    13.7360    -7.7220 c          1 QZV       0.729500
      9 C05         -0.1230    15.7440    -7.3300 cc         1 QZV       0.040100
     10 C06          0.3150    17.0560    -7.4930 cd         1 QZV       0.079400
     11 C07          1.1080    17.6330    -8.5190 ch         1 QZV      -0.035800
     12 C08          1.8220    18.0660    -9.4090 cg         1 QZV      -0.160000
     13 C09          2.6740    18.5580   -10.4520 ca         1 QZV       0.085000
     14 C11          3.9360    20.3780   -11.4680 ca         1 QZV      -0.078250
     15 C12          4.3720    19.5270   -12.5110 ca         1 QZV      -0.167100
     16 C16          5.6760    19.7540   -17.0340 c3         1 QZV       0.135600
     17 C18          4.0130    21.2710   -17.9970 c3         1 QZV       0.123600
     18 C19          2.8960    20.2180   -18.2350 c3         1 QZV       0.123600
     19 C25          1.5960    23.7510   -23.2540 ca         1 QZV      -0.167100
     20 C27          3.6530    23.3210   -24.5110 ca         1 QZV      -0.108750
     21 C29          3.8360    23.9580   -26.8800 cg         1 QZV      -0.160000
     22 C30          4.4750    23.9930   -27.9190 ch         1 QZV      -0.035800
     23 C31          5.2020    23.9510   -29.1370 cd         1 QZV       0.079400
     24 C32          4.8320    23.4530   -30.3840 cc         1 QZV       0.040100
     25 C33          3.5350    22.8110   -30.8070 c3         1 QZV      -0.186700
     26 C34          2.5770    23.8450   -31.4070 c          1 QZV       0.729500
     27 C37          6.0080    23.6940   -31.2050 ca         1 QZV      -0.101300
     28 C38          6.2510    23.4200   -32.5590 ca         1 QZV      -0.014000
     29 C39          7.5140    23.7720   -33.0950 ca         1 QZV      -0.131800
     30 C40          7.8210    23.4940   -34.5590 c3         1 QZV      -0.032300
     31 C41          8.4910    24.3900   -32.2710 ca         1 QZV      -0.095000
     32 C42          8.2200    24.6600   -30.9120 ca         1 QZV      -0.127000
     33 C43          6.9640    24.2940   -30.4210 ca         1 QZV       0.074600
     34 C45          1.7830    24.4210   -25.6020 ca         1 QZV      -0.108750
     35 C46          1.0470    24.3580   -24.4050 ca         1 QZV      -0.078250
     36 C49          3.9360    18.1770   -12.5040 ca         1 QZV      -0.078250
     37 C50          3.0960    17.7020   -11.4820 ca         1 QZV      -0.108750
     38 C52         -0.8490    17.0860    -5.6170 ca         1 QZV       0.074600
     39 C53         -1.4830    17.4720    -4.4330 ca         1 QZV      -0.127000
     40 C54         -2.1770    16.4760    -3.7130 ca         1 QZV      -0.095000
     41 C55         -2.2210    15.1380    -4.1870 ca         1 QZV      -0.131800
     42 C56         -2.9690    14.0760    -3.3950 c3         1 QZV      -0.032300
     43 C57         -1.5620    14.7880    -5.3910 ca         1 QZV      -0.014000
     44 C58         -0.8820    15.7950    -6.0890 ca         1 QZV      -0.101300
     45 N14          5.6710    19.1950   -14.5770 ns         1 QZV      -0.499900
     46 N23          0.8480    22.6280   -21.1380 ns         1 QZV      -0.499900
     47 O01          2.4330    14.0690    -8.1160 o          1 QZV      -0.717500
     48 O03          1.1400    12.8820    -6.8680 o          1 QZV      -0.717500
     49 O17          4.8110    20.8950   -16.8530 os         1 QZV      -0.445000
     50 O20          1.9590    20.7090   -19.2190 os         1 QZV      -0.445000
     51 O35          2.6690    24.0870   -32.6010 o          1 QZV      -0.717500
     52 O36          1.8550    24.4690   -30.6440 o          1 QZV      -0.717500
     53 O44          6.4790    24.4530   -29.1630 os         1 QZV      -0.177700
     54 O47          0.0890    24.6730   -21.6490 o          1 QZV      -0.596600
     55 O48          5.6750    21.2380   -13.5810 o          1 QZV      -0.596600
     56 O51         -0.1230    17.8560    -6.4670 os         1 QZV      -0.177700
     57 H101         2.7740    20.5680    -9.6550 ha         1 QZV       0.128500
     58 H151         7.2080    18.7150   -15.9140 h1         1 QZV       0.059700
     59 H152         7.0900    20.4390   -15.5340 h1         1 QZV       0.059700
     60 H211         2.7590    19.7710   -20.9160 h1         1 QZV       0.028450
     61 H212         3.3000    21.4470   -20.6640 h1         1 QZV       0.028450
     62 H222         0.4400    20.5890   -21.3640 h1         1 QZV       0.059700
     63 H221         1.6000    21.2110   -22.5320 h1         1 QZV       0.059700
     64 H261         3.3930    22.8400   -22.4300 ha         1 QZV       0.117250
     65 H042        -0.7890    13.9290    -8.1490 hc         1 QZV       0.040950
     66 H041         0.3080    14.9250    -9.2170 hc         1 QZV       0.040950
     67 H111         4.2500    21.4190   -11.4420 ha         1 QZV       0.117250
     68 H161         5.0970    18.8450   -17.2440 h1         1 QZV       0.028450
     69 H162         6.3650    19.9240   -17.8720 h1         1 QZV       0.028450
     70 H182         4.6430    21.3670   -18.8910 h1         1 QZV       0.051450
     71 H181         3.5410    22.2450   -17.8130 h1         1 QZV       0.051450
     72 H192         2.3760    20.0410   -17.2850 h1         1 QZV       0.051450
     73 H191         3.3340    19.2660   -18.5610 h1         1 QZV       0.051450
     74 H271         4.6680    22.9300   -24.5420 ha         1 QZV       0.128500
     75 H331         3.0920    22.3750   -29.9040 hc         1 QZV       0.040950
     76 H332         3.7920    22.0580   -31.5610 hc         1 QZV       0.040950
     77 H381         5.4890    22.9510   -33.1770 ha         1 QZV       0.131500
     78 H401         7.5580    24.3570   -35.1820 hc         1 QZV       0.030367
     79 H402         8.8860    23.2830   -34.7100 hc         1 QZV       0.030367
     80 H403         7.2580    22.6290   -34.9290 hc         1 QZV       0.030367
     81 H411         9.4590    24.6620   -32.6870 ha         1 QZV       0.094000
     82 H421         8.9590    25.1340   -30.2700 ha         1 QZV       0.115000
     83 H451         1.3400    24.8780   -26.4840 ha         1 QZV       0.128500
     84 H461         0.0400    24.7700   -24.3770 ha         1 QZV       0.117250
     85 H491         4.2400    17.4800   -13.2800 ha         1 QZV       0.117250
     86 H501         2.7740    16.6630   -11.4910 ha         1 QZV       0.128500
     87 H531        -1.4390    18.4990    -4.0810 ha         1 QZV       0.115000
     88 H541        -2.6800    16.7410    -2.7860 ha         1 QZV       0.094000
     89 H562        -3.3810    13.3020    -4.0530 hc         1 QZV       0.030367
     90 H561        -2.3030    13.5840    -2.6760 hc         1 QZV       0.030367
     91 H563        -3.8050    14.5100    -2.8340 hc         1 QZV       0.030367
     92 H571        -1.5800    13.7660    -5.7640 ha         1 QZV       0.131500
     93 H141         5.3090    18.2530   -14.5090 hn         1 QZV       0.314000
     94 H231         0.3520    22.7370   -20.2610 hn         1 QZV       0.314000
     95 C04          0.1170    14.5420    -8.2070 c3         1 QZV      -0.186700
     96 C21          2.4440    20.7670   -20.5770 c3         1 QZV       0.135600
@<TRIPOS>BOND
     1     1    13 ar  
     2     1    14 ar  
     3     1    57 1   
     4     2    15 1   
     5     2    45 1   
     6     2    55 2   
     7     3    16 1   
     8     3    45 1   
     9     3    58 1   
    10     3    59 1   
    11     4    46 1   
    12     4    62 1   
    13     4    63 1   
    14     4    96 1   
    15     5    19 1   
    16     5    46 1   
    17     5    54 2   
    18     6    19 ar  
    19     6    20 ar  
    20     6    64 1   
    21     7    20 ar  
    22     7    21 1   
    23     7    34 ar  
    24     8    47 1   
    25     8    48 1   
    26     8    95 1   
    27     9    10 2   
    28     9    44 1   
    29     9    95 1   
    30    10    11 1   
    31    10    56 1   
    32    11    12 3   
    33    12    13 1   
    34    13    37 ar  
    35    14    15 ar  
    36    14    67 1   
    37    15    36 ar  
    38    16    49 1   
    39    16    68 1   
    40    16    69 1   
    41    17    18 1   
    42    17    49 1   
    43    17    70 1   
    44    17    71 1   
    45    18    50 1   
    46    18    72 1   
    47    18    73 1   
    48    19    35 ar  
    49    20    74 1   
    50    21    22 3   
    51    22    23 1   
    52    23    24 2   
    53    23    53 1   
    54    24    25 1   
    55    24    27 1   
    56    25    26 1   
    57    25    75 1   
    58    25    76 1   
    59    26    51 1   
    60    26    52 1   
    61    27    28 ar  
    62    27    33 ar  
    63    28    29 ar  
    64    28    77 1   
    65    29    30 1   
    66    29    31 ar  
    67    30    78 1   
    68    30    79 1   
    69    30    80 1   
    70    31    32 ar  
    71    31    81 1   
    72    32    33 ar  
    73    32    82 1   
    74    33    53 1   
    75    34    35 ar  
    76    34    83 1   
    77    35    84 1   
    78    36    37 ar  
    79    36    85 1   
    80    37    86 1   
    81    38    39 ar  
    82    38    44 ar  
    83    38    56 1   
    84    39    40 ar  
    85    39    87 1   
    86    40    41 ar  
    87    40    88 1   
    88    41    42 1   
    89    41    43 ar  
    90    42    89 1   
    91    42    90 1   
    92    42    91 1   
    93    43    44 ar  
    94    43    92 1   
    95    45    93 1   
    96    46    94 1   
    97    50    96 1   
    98    60    96 1   
    99    61    96 1   
   100    65    95 1   
   101    66    95 1   
@<TRIPOS>SUBSTRUCTURE
     1 QZV         1 TEMP              0 ****  ****    0 ROOT
