@<TRIPOS>MOLECULE
QZW
   39    42     1     0     0
SMALL
abcg2


@<TRIPOS>ATOM
      1 C1          44.8070     3.7340    18.4290 c3         1 QZW      -0.132400
      2 N1          44.1000     3.6690    16.1260 nb         1 QZW      -0.313000
      3 O1          43.4260     3.4820    13.9490 os         1 QZW      -0.446300
      4 S1          43.0990     0.2380    10.5180 ss         1 QZW       0.208000
      5 C2          44.3560     4.4460    17.1940 ca         1 QZW       0.195300
      6 N2          43.5970     7.6160    15.8690 na         1 QZW      -0.309400
      7 C3          43.7090     4.2270    15.0040 ca         1 QZW       0.413300
      8 N3          40.4370     7.7430    10.0420 nv         1 QZW      -1.057900
      9 C4          43.4880     2.0580    14.0610 c3         1 QZW       0.239900
     10 N4          42.1060     6.1770     9.8130 nb         1 QZW      -0.742000
     11 C5          43.0860     1.5110    12.7330 cc         1 QZW      -0.121300
     12 N5          44.2320     5.7560    17.2360 nb         1 QZW      -0.218000
     13 C6          43.8690     0.6890    11.9790 cd         1 QZW      -0.230000
     14 C7          41.7070     1.1650    10.9000 cd         1 QZW      -0.247000
     15 C8          41.8350     1.7850    12.1030 cc         1 QZW      -0.104000
     16 C9          43.5740     5.6180    14.8920 ca         1 QZW      -0.204800
     17 C10         43.8360     6.3020    16.0860 ca         1 QZW       0.137500
     18 C11         43.1860     7.7930    14.5780 cc         1 QZW      -0.161100
     19 C12         43.1560     6.5900    13.9230 cd         1 QZW      -0.043400
     20 C13         42.7920     6.4200    12.5150 ca         1 QZW       0.062200
     21 C14         41.7390     7.1410    11.9750 ca         1 QZW      -0.230000
     22 C15         41.4310     7.0010    10.6120 ca         1 QZW       0.588900
     23 C16         43.1140     5.4890    10.3440 ca         1 QZW       0.376900
     24 C17         43.5060     5.5670    11.6630 ca         1 QZW      -0.187000
     25 H1          44.0370     3.0440    18.7750 hc         1 QZW       0.058700
     26 H2          45.6990     3.1410    18.2250 hc         1 QZW       0.058700
     27 H3          45.0280     4.4380    19.2280 hc         1 QZW       0.058700
     28 H4          43.7140     8.3510    16.5490 hn         1 QZW       0.365000
     29 H5          40.0780     7.4040     9.1650 hn         1 QZW       0.467500
     30 H6          39.7370     8.1330    10.6510 hn         1 QZW       0.467500
     31 H7          42.8080     1.7220    14.8480 h1         1 QZW       0.059200
     32 H8          44.4950     1.7320    14.3290 h1         1 QZW       0.059200
     33 H9          44.8600     0.3300    12.2120 h4         1 QZW       0.151000
     34 H10         40.8700     1.2010    10.2200 h4         1 QZW       0.152000
     35 H11         41.0680     2.4160    12.5300 ha         1 QZW       0.142000
     36 H12         42.9670     8.7790    14.2010 h4         1 QZW       0.223000
     37 H13         41.1420     7.7950    12.5980 ha         1 QZW       0.115000
     38 H14         43.6460     4.8320     9.6640 h4         1 QZW       0.015100
     39 H15         44.3500     4.9920    12.0140 ha         1 QZW       0.134000
@<TRIPOS>BOND
     1     1     5 1   
     2     1    25 1   
     3     1    26 1   
     4     1    27 1   
     5     2     5 ar  
     6     2     7 ar  
     7     3     7 1   
     8     3     9 1   
     9     4    13 1   
    10     4    14 1   
    11     5    12 ar  
    12     6    17 1   
    13     6    18 1   
    14     6    28 1   
    15     7    16 ar  
    16     8    22 1   
    17     8    29 1   
    18     8    30 1   
    19     9    11 1   
    20     9    31 1   
    21     9    32 1   
    22    10    22 ar  
    23    10    23 ar  
    24    11    13 2   
    25    11    15 1   
    26    12    17 ar  
    27    13    33 1   
    28    14    15 2   
    29    14    34 1   
    30    15    35 1   
    31    16    17 ar  
    32    16    19 1   
    33    18    19 2   
    34    18    36 1   
    35    19    20 1   
    36    20    21 ar  
    37    20    24 ar  
    38    21    22 ar  
    39    21    37 1   
    40    23    24 ar  
    41    23    38 1   
    42    24    39 1   
@<TRIPOS>SUBSTRUCTURE
     1 QZW         1 TEMP              0 ****  ****    0 ROOT
