@<TRIPOS>MOLECULE
QZW
   39    42     1     0     0
SMALL
No Charge or Current Charge


@<TRIPOS>ATOM
      1 C1          44.8560     3.7630    18.5320 c3         1 QZW      -0.132400
      2 N1          44.1370     3.6540    16.1970 nb         1 QZW      -0.313000
      3 O1          43.3580     3.5010    13.9730 os         1 QZW      -0.446300
      4 S1          43.0940     0.5390    10.1870 ss         1 QZW       0.208000
      5 C2          44.3910     4.4500    17.2610 ca         1 QZW       0.195300
      6 N2          43.5520     7.7080    15.9150 na         1 QZW      -0.309400
      7 C3          43.7320     4.2570    15.0550 ca         1 QZW       0.413300
      8 N3          40.5550     7.5490     9.9690 nv         1 QZW      -1.057900
      9 C4          43.4760     2.0690    13.9700 c3         1 QZW       0.239900
     10 N4          42.0250     5.9230     9.9040 nb         1 QZW      -0.742000
     11 C5          43.1020     1.5900    12.5880 cc         1 QZW      -0.121300
     12 N5          44.2520     5.7940    17.3070 nb         1 QZW      -0.218000
     13 C6          43.9090     0.8950    11.7200 cd         1 QZW      -0.230000
     14 C7          41.6390     1.3600    10.7660 cd         1 QZW      -0.247000
     15 C8          41.8180     1.8470    12.0340 cc         1 QZW      -0.104000
     16 C9          43.6210     5.6640    15.0160 ca         1 QZW      -0.204800
     17 C10         43.8540     6.3840    16.1670 ca         1 QZW       0.137500
     18 C11         43.0910     7.8860    14.5960 cc         1 QZW      -0.161100
     19 C12         43.2000     6.6360    14.0060 cd         1 QZW      -0.043400
     20 C13         42.8010     6.3610    12.6060 ca         1 QZW       0.062200
     21 C14         41.8250     7.1530    11.9740 ca         1 QZW      -0.230000
     22 C15         41.4870     6.8770    10.6480 ca         1 QZW       0.588900
     23 C16         42.9900     5.1780    10.4870 ca         1 QZW       0.376900
     24 C17         43.4140     5.3740    11.8110 ca         1 QZW      -0.187000
     25 H1          44.0000     3.4680    19.1490 hc         1 QZW       0.058700
     26 H2          45.4370     2.8600    18.3090 hc         1 QZW       0.058700
     27 H3          45.4930     4.4220    19.1340 hc         1 QZW       0.058700
     28 H4          43.6300     8.4440    16.6100 hn         1 QZW       0.365000
     29 H5          40.2460     7.1020     9.1140 hn         1 QZW       0.467500
     30 H6          39.8520     8.0500    10.5000 hn         1 QZW       0.467500
     31 H7          42.8060     1.6170    14.7130 h1         1 QZW       0.059200
     32 H8          44.5050     1.7600    14.1960 h1         1 QZW       0.059200
     33 H9          44.9310     0.5710    11.8730 h4         1 QZW       0.151000
     34 H10         40.7610     1.4300    10.1360 h4         1 QZW       0.152000
     35 H11         41.0550     2.3930    12.5820 ha         1 QZW       0.142000
     36 H12         42.7770     8.8460    14.1940 h4         1 QZW       0.223000
     37 H13         41.3190     7.9510    12.5060 ha         1 QZW       0.115000
     38 H14         43.4550     4.4140     9.8650 h4         1 QZW       0.015100
     39 H15         44.2440     4.7870    12.1840 ha         1 QZW       0.134000
@<TRIPOS>BOND
     1     1     5 1   
     2     1    25 1   
     3     1    26 1   
     4     1    27 1   
     5     2     5 ar  
     6     2     7 ar  
     7     3     7 1   
     8     3     9 1   
     9     4    13 1   
    10     4    14 1   
    11     5    12 ar  
    12     6    17 1   
    13     6    18 1   
    14     6    28 1   
    15     7    16 ar  
    16     8    22 1   
    17     8    29 1   
    18     8    30 1   
    19     9    11 1   
    20     9    31 1   
    21     9    32 1   
    22    10    22 ar  
    23    10    23 ar  
    24    11    13 2   
    25    11    15 1   
    26    12    17 ar  
    27    13    33 1   
    28    14    15 2   
    29    14    34 1   
    30    15    35 1   
    31    16    17 ar  
    32    16    19 1   
    33    18    19 2   
    34    18    36 1   
    35    19    20 1   
    36    20    21 ar  
    37    20    24 ar  
    38    21    22 ar  
    39    21    37 1   
    40    23    24 ar  
    41    23    38 1   
    42    24    39 1   
@<TRIPOS>SUBSTRUCTURE
     1 QZW         1 TEMP              0 ****  ****    0 ROOT
