@<TRIPOS>MOLECULE
QZX
   38    42     1     0     0
SMALL
No Charge or Current Charge


@<TRIPOS>ATOM
      1 C1         -47.1150   -27.5020    -1.1530 c          1 QZX       0.722000
      2 C2         -46.2960   -27.8450     0.0770 cx         1 QZX      -0.186700
      3 C3         -44.8810   -28.3750    -0.1030 cx         1 QZX      -0.122700
      4 O1         -46.6610   -26.6820    -1.9370 o          1 QZX      -0.729500
      5 O2         -48.2150   -28.0210    -1.2750 o          1 QZX      -0.729500
      6 C10        -49.9420   -29.0910     5.9560 ca         1 QZX      -0.192000
      7 C11        -50.5820   -28.4950     4.8510 ca         1 QZX       0.175000
      8 C12        -49.8570   -28.1630     3.6820 ca         1 QZX      -0.164000
      9 C13        -48.4720   -28.4330     3.5940 ca         1 QZX      -0.026000
     10 C14        -46.3570   -29.9460     6.2480 ca         1 QZX       0.187500
     11 C15        -44.1230   -30.2550     5.9710 ca         1 QZX       0.177900
     12 C16        -45.8570   -29.8760     1.7890 c6         1 QZX       0.253800
     13 C17        -45.9660   -29.3050     0.3620 cx         1 QZX      -0.166700
     14 C4         -43.7630   -28.0910     0.9090 c6         1 QZX      -0.056400
     15 C5         -44.2720   -27.9350     2.3700 c6         1 QZX       0.235800
     16 C6         -45.2800   -29.3910     4.1660 ca         1 QZX       0.445900
     17 C7         -46.4550   -29.4450     4.9470 cp         1 QZX      -0.229000
     18 C8         -47.8400   -29.0530     4.6930 cp         1 QZX      -0.055000
     19 C9         -48.5750   -29.3500     5.8340 ca         1 QZX      -0.006200
     20 N1         -45.2420   -28.9880     2.8200 nh         1 QZX      -0.766300
     21 N2         -47.6640   -29.8890     6.7490 na         1 QZX      -0.339300
     22 N3         -45.1990   -30.3580     6.7840 nb         1 QZX      -0.267000
     23 N4         -44.1050   -29.8000     4.6950 nb         1 QZX      -0.303000
     24 H1         -46.4890   -27.2000     0.9280 hc         1 QZX       0.071700
     25 H2         -44.5200   -28.5020    -1.1220 hc         1 QZX       0.099700
     26 H7         -50.4900   -29.3330     6.8630 ha         1 QZX       0.123000
     27 H8         -50.3700   -27.6910     2.8490 ha         1 QZX       0.143000
     28 H9         -47.9100   -28.1590     2.7060 ha         1 QZX       0.164000
     29 H11        -43.1700   -30.5820     6.3840 h5         1 QZX       0.034100
     30 H12        -45.2680   -30.8020     1.7230 h1         1 QZX       0.041200
     31 H13        -46.8680   -30.1730     2.1050 h1         1 QZX       0.041200
     32 H14        -46.3300   -30.0400    -0.3530 hc         1 QZX       0.104700
     33 H3         -43.0390   -28.9150     0.8660 hc         1 QZX       0.034200
     34 H4         -43.2210   -27.1840     0.6090 hc         1 QZX       0.034200
     35 H5         -43.3930   -27.9090     3.0310 h1         1 QZX       0.045700
     36 H6         -44.7520   -26.9500     2.4670 h1         1 QZX       0.045700
     37 H10        -47.9140   -30.2010     7.6800 hn         1 QZX       0.356000
     38 F1         -51.9030   -28.2220     4.9160 f          1 QZX      -0.196000
@<TRIPOS>BOND
     1     1     2 1   
     2     1     4 1   
     3     1     5 1   
     4     2     3 1   
     5     2    13 1   
     6     2    24 1   
     7     3    13 1   
     8     3    14 1   
     9     3    25 1   
    10     6     7 ar  
    11     6    19 ar  
    12     6    26 1   
    13     7     8 ar  
    14     7    38 1   
    15     8     9 ar  
    16     8    27 1   
    17     9    18 ar  
    18     9    28 1   
    19    10    17 ar  
    20    10    21 1   
    21    10    22 ar  
    22    11    22 ar  
    23    11    23 ar  
    24    11    29 1   
    25    12    13 1   
    26    12    20 1   
    27    12    30 1   
    28    12    31 1   
    29    13    32 1   
    30    14    15 1   
    31    14    33 1   
    32    14    34 1   
    33    15    20 1   
    34    15    35 1   
    35    15    36 1   
    36    16    17 ar  
    37    16    20 1   
    38    16    23 ar  
    39    17    18 1   
    40    18    19 ar  
    41    19    21 1   
    42    21    37 1   
@<TRIPOS>SUBSTRUCTURE
     1 QZX         1 TEMP              0 ****  ****    0 ROOT
