@<TRIPOS>MOLECULE
QZX
   38    42     1     0     0
SMALL
abcg2


@<TRIPOS>ATOM
      1 C1         -47.0970   -26.7930    -0.1190 c          1 QZX       0.722000
      2 C2         -46.1470   -27.6400     0.7010 cx         1 QZX      -0.186700
      3 C3         -45.0720   -28.4500     0.0040 cx         1 QZX      -0.122700
      4 O1         -47.4620   -25.7040     0.4030 o          1 QZX      -0.729500
      5 O2         -47.4520   -27.2270    -1.2460 o          1 QZX      -0.729500
      6 C10        -49.9880   -29.2480     5.6410 ca         1 QZX      -0.192000
      7 C11        -50.6450   -29.0070     4.4520 ca         1 QZX       0.175000
      8 C12        -49.9940   -28.8040     3.2400 ca         1 QZX      -0.164000
      9 C13        -48.6070   -28.8740     3.1910 ca         1 QZX      -0.026000
     10 C14        -46.4260   -29.3670     6.1130 ca         1 QZX       0.187500
     11 C15        -44.2210   -29.1200     6.1650 ca         1 QZX       0.177900
     12 C16        -45.8910   -29.9810     1.8360 c6         1 QZX       0.253800
     13 C17        -46.2330   -29.1520     0.6180 cx         1 QZX      -0.166700
     14 C4         -43.7270   -28.7330     0.6410 c6         1 QZX      -0.056400
     15 C5         -43.7250   -28.7780     2.1760 c6         1 QZX       0.235800
     16 C6         -45.2040   -29.1940     4.0690 ca         1 QZX       0.445900
     17 C7         -46.4720   -29.2500     4.7050 cp         1 QZX      -0.229000
     18 C8         -47.8800   -29.1540     4.3530 cp         1 QZX      -0.055000
     19 C9         -48.6000   -29.3010     5.5720 ca         1 QZX      -0.006200
     20 N1         -44.9970   -29.2630     2.7340 nh         1 QZX      -0.766300
     21 N2         -47.7000   -29.4540     6.6060 na         1 QZX      -0.339300
     22 N3         -45.3290   -29.3320     6.8740 nb         1 QZX      -0.267000
     23 N4         -44.1020   -29.0490     4.8450 nb         1 QZX      -0.303000
     24 H1         -45.9020   -27.2240     1.6680 hc         1 QZX       0.071700
     25 H2         -45.0630   -28.3630    -1.0750 hc         1 QZX       0.099700
     26 H7         -50.5280   -29.3670     6.5700 ha         1 QZX       0.123000
     27 H8         -50.5720   -28.5870     2.3530 ha         1 QZX       0.143000
     28 H9         -48.1120   -28.6830     2.2520 ha         1 QZX       0.164000
     29 H11        -43.3030   -29.0070     6.7330 h5         1 QZX       0.034100
     30 H12        -45.3910   -30.9020     1.5110 h1         1 QZX       0.041200
     31 H13        -46.7720   -30.2930     2.3840 h1         1 QZX       0.041200
     32 H14        -46.9930   -29.5630    -0.0320 hc         1 QZX       0.104700
     33 H3         -43.3780   -29.6940     0.2520 hc         1 QZX       0.034200
     34 H4         -42.9870   -27.9900     0.3350 hc         1 QZX       0.034200
     35 H5         -42.8950   -29.3990     2.5190 h1         1 QZX       0.045700
     36 H6         -43.5580   -27.7780     2.5790 h1         1 QZX       0.045700
     37 H10        -47.9310   -29.4830     7.5860 hn         1 QZX       0.356000
     38 F1         -52.0030   -28.9440     4.4700 f          1 QZX      -0.196000
@<TRIPOS>BOND
     1     1     2 1   
     2     1     4 1   
     3     1     5 1   
     4     2     3 1   
     5     2    13 1   
     6     2    24 1   
     7     3    13 1   
     8     3    14 1   
     9     3    25 1   
    10     6     7 ar  
    11     6    19 ar  
    12     6    26 1   
    13     7     8 ar  
    14     7    38 1   
    15     8     9 ar  
    16     8    27 1   
    17     9    18 ar  
    18     9    28 1   
    19    10    17 ar  
    20    10    21 1   
    21    10    22 ar  
    22    11    22 ar  
    23    11    23 ar  
    24    11    29 1   
    25    12    13 1   
    26    12    20 1   
    27    12    30 1   
    28    12    31 1   
    29    13    32 1   
    30    14    15 1   
    31    14    33 1   
    32    14    34 1   
    33    15    20 1   
    34    15    35 1   
    35    15    36 1   
    36    16    17 ar  
    37    16    20 1   
    38    16    23 ar  
    39    17    18 1   
    40    18    19 ar  
    41    19    21 1   
    42    21    37 1   
@<TRIPOS>SUBSTRUCTURE
     1 QZX         1 TEMP              0 ****  ****    0 ROOT
