@<TRIPOS>MOLECULE
QZY
   57    60     1     0     0
SMALL
No Charge or Current Charge


@<TRIPOS>ATOM
      1 C13        -83.5340    28.7640    32.8730 ca         1 QZY      -0.138000
      2 C15        -83.6280    29.6070    35.1550 ca         1 QZY      -0.136000
      3 C17        -83.8810    27.2230    34.7270 ca         1 QZY      -0.138000
      4 C01        -87.6210    26.6920    25.3020 cc         1 QZY      -0.302600
      5 C02        -86.2750    26.5690    25.0250 cd         1 QZY       0.041600
      6 C04        -86.1940    26.5500    27.3530 cc         1 QZY      -0.239000
      7 C06        -85.5650    26.5100    28.6760 ca         1 QZY       0.022000
      8 C08        -83.7870    25.7490    30.1750 ca         1 QZY      -0.145000
      9 C11        -86.1620    27.1870    29.7600 ca         1 QZY      -0.090500
     10 C12        -83.7460    27.4540    33.3480 ca         1 QZY       0.128100
     11 C14        -83.4790    29.8400    33.7770 ca         1 QZY      -0.095000
     12 C16        -83.8270    28.2990    35.6320 ca         1 QZY      -0.095000
     13 C03        -85.4590    26.4940    26.1930 cd         1 QZY      -0.118000
     14 C07        -84.3750    25.7840    28.8980 ca         1 QZY      -0.090500
     15 C09        -84.3770    26.4430    31.2420 ca         1 QZY       0.091100
     16 C10        -85.5740    27.1530    31.0370 ca         1 QZY      -0.145000
     17 C18        -84.5430    26.4110    23.2020 c          1 QZY       0.661100
     18 C19        -83.1180    26.2760    21.1390 c3         1 QZY       0.122000
     19 C20        -85.6210    26.5060    20.8850 c3         1 QZY       0.150300
     20 C21        -86.1260    25.1720    20.3430 ca         1 QZY      -0.093300
     21 C22        -86.0750    24.9100    18.9580 ca         1 QZY      -0.089000
     22 C23        -86.5290    23.6800    18.4490 ca         1 QZY      -0.116500
     23 C24        -87.0380    22.7030    19.3200 ca         1 QZY      -0.118000
     24 C25        -87.0930    22.9570    20.7010 ca         1 QZY      -0.116500
     25 C26        -86.6390    24.1850    21.2110 ca         1 QZY      -0.089000
     26 C28        -82.7140    24.8260    20.8150 c3         1 QZY      -0.114100
     27 N02        -84.4460    26.3810    21.7900 n          1 QZY      -0.431800
     28 O01        -89.8660    26.9000    24.7430 o          1 QZY      -0.712500
     29 O02        -88.4640    26.7740    23.1270 o          1 QZY      -0.712500
     30 O03        -83.7880    26.3810    32.4850 os         1 QZY      -0.261200
     31 O04        -83.5470    26.3290    23.9050 o          1 QZY      -0.674100
     32 S01        -87.9170    26.7280    27.0370 ss         1 QZY       0.252000
     33 H1         -83.4070    28.9480    31.8090 ha         1 QZY       0.129000
     34 H2         -83.5860    30.4390    35.8550 ha         1 QZY       0.108000
     35 H3         -84.0320    26.2110    35.0930 ha         1 QZY       0.129000
     36 H4         -82.8720    25.1840    30.3370 ha         1 QZY       0.117500
     37 H5         -87.0810    27.7480    29.6150 ha         1 QZY       0.124000
     38 H6         -83.3190    30.8520    33.4100 ha         1 QZY       0.109000
     39 H7         -83.9370    28.1190    36.6990 ha         1 QZY       0.109000
     40 H8         -84.3790    26.4120    26.1800 ha         1 QZY       0.145000
     41 H9         -83.9080    25.2310    28.0870 ha         1 QZY       0.124000
     42 H10        -86.0510    27.6760    31.8620 ha         1 QZY       0.117500
     43 H11        -83.1300    26.8530    20.2050 h1         1 QZY       0.041200
     44 H12        -82.3500    26.7300    21.7780 h1         1 QZY       0.041200
     45 H13        -85.3310    27.1420    20.0380 h1         1 QZY       0.064200
     46 H14        -86.4450    27.0390    21.3710 h1         1 QZY       0.064200
     47 H15        -85.6800    25.6570    18.2730 ha         1 QZY       0.116500
     48 H16        -86.4860    23.4850    17.3800 ha         1 QZY       0.104000
     49 H17        -87.3890    21.7520    18.9270 ha         1 QZY       0.099000
     50 H18        -87.4860    22.2010    21.3770 ha         1 QZY       0.104000
     51 H19        -86.6860    24.3640    22.2810 ha         1 QZY       0.116500
     52 H20        -81.7170    24.8030    20.3610 hc         1 QZY       0.037367
     53 H21        -82.6910    24.2200    21.7280 hc         1 QZY       0.037367
     54 H22        -83.4200    24.3690    20.1130 hc         1 QZY       0.037367
     55 H23        -86.5380    26.5840    23.0100 hn         1 QZY       0.389500
     56 C05        -88.7250    26.7940    24.3210 c          1 QZY       0.743600
     57 N01        -85.8160    26.5290    23.7190 ns         1 QZY      -0.415100
@<TRIPOS>BOND
     1     1    10 ar  
     2     1    11 ar  
     3     1    33 1   
     4     2    11 ar  
     5     2    12 ar  
     6     2    34 1   
     7     3    10 ar  
     8     3    12 ar  
     9     3    35 1   
    10     4     5 2   
    11     4    32 1   
    12     4    56 1   
    13     5    13 1   
    14     5    57 1   
    15     6     7 1   
    16     6    13 2   
    17     6    32 1   
    18     7     9 ar  
    19     7    14 ar  
    20     8    14 ar  
    21     8    15 ar  
    22     8    36 1   
    23     9    16 ar  
    24     9    37 1   
    25    10    30 1   
    26    11    38 1   
    27    12    39 1   
    28    13    40 1   
    29    14    41 1   
    30    15    16 ar  
    31    15    30 1   
    32    16    42 1   
    33    17    27 1   
    34    17    31 2   
    35    17    57 1   
    36    18    26 1   
    37    18    27 1   
    38    18    43 1   
    39    18    44 1   
    40    19    20 1   
    41    19    27 1   
    42    19    45 1   
    43    19    46 1   
    44    20    21 ar  
    45    20    25 ar  
    46    21    22 ar  
    47    21    47 1   
    48    22    23 ar  
    49    22    48 1   
    50    23    24 ar  
    51    23    49 1   
    52    24    25 ar  
    53    24    50 1   
    54    25    51 1   
    55    26    52 1   
    56    26    53 1   
    57    26    54 1   
    58    28    56 1   
    59    29    56 1   
    60    55    57 1   
@<TRIPOS>SUBSTRUCTURE
     1 QZY         1 TEMP              0 ****  ****    0 ROOT
