@<TRIPOS>MOLECULE
QZY
   57    60     1     0     0
SMALL
abcg2


@<TRIPOS>ATOM
      1 C13        -83.5130    28.8480    32.9530 ca         1 QZY      -0.138000
      2 C15        -83.9470    29.5590    35.2160 ca         1 QZY      -0.136000
      3 C17        -84.1170    27.2260    34.6360 ca         1 QZY      -0.138000
      4 C01        -87.4330    26.5800    25.3430 cc         1 QZY      -0.302600
      5 C02        -86.1040    26.5080    24.9850 cd         1 QZY       0.041600
      6 C04        -85.9130    26.5700    27.3000 cc         1 QZY      -0.239000
      7 C06        -85.3410    26.5730    28.6460 ca         1 QZY       0.022000
      8 C08        -83.5620    25.9410    30.1640 ca         1 QZY      -0.145000
      9 C11        -85.9800    27.2080    29.7120 ca         1 QZY      -0.090500
     10 C12        -83.7730    27.5350    33.3280 ca         1 QZY       0.128100
     11 C14        -83.6070    29.8550    33.9020 ca         1 QZY      -0.095000
     12 C16        -84.1960    28.2420    35.5790 ca         1 QZY      -0.095000
     13 C03        -85.2340    26.5040    26.1130 cd         1 QZY      -0.118000
     14 C07        -84.1250    25.9330    28.9000 ca         1 QZY      -0.090500
     15 C09        -84.2180    26.5770    31.2110 ca         1 QZY       0.091100
     16 C10        -85.4350    27.2100    30.9860 ca         1 QZY      -0.145000
     17 C18        -84.5230    26.3320    23.1050 c          1 QZY       0.661100
     18 C19        -83.1560    26.0820    21.1270 c3         1 QZY       0.122000
     19 C20        -85.5760    26.5210    20.8480 c3         1 QZY       0.150300
     20 C21        -86.1490    25.2360    20.2940 ca         1 QZY      -0.093300
     21 C22        -86.4160    25.1310    18.9330 ca         1 QZY      -0.089000
     22 C23        -86.9570    23.9680    18.3990 ca         1 QZY      -0.116500
     23 C24        -87.2370    22.8900    19.2250 ca         1 QZY      -0.118000
     24 C25        -86.9720    22.9840    20.5870 ca         1 QZY      -0.116500
     25 C26        -86.4360    24.1480    21.1160 ca         1 QZY      -0.089000
     26 C28        -82.7820    24.6080    21.0670 c3         1 QZY      -0.114100
     27 N02        -84.4500    26.3480    21.7420 n          1 QZY      -0.431800
     28 O01        -89.7410    26.6700    25.0340 o          1 QZY      -0.712500
     29 O02        -88.4240    26.5580    23.2260 o          1 QZY      -0.712500
     30 O03        -83.6440    26.4960    32.4450 os         1 QZY      -0.261200
     31 O04        -83.5190    26.2060    23.7970 o          1 QZY      -0.674100
     32 S01        -87.6150    26.6350    27.0510 ss         1 QZY       0.252000
     33 H1         -83.2360    29.0860    31.9330 ha         1 QZY       0.129000
     34 H2         -84.0160    30.3490    35.9520 ha         1 QZY       0.108000
     35 H3         -84.3150    26.1980    34.9130 ha         1 QZY       0.129000
     36 H4         -82.6190    25.4400    30.3430 ha         1 QZY       0.117500
     37 H5         -86.9180    27.7250    29.5540 ha         1 QZY       0.124000
     38 H6         -83.4050    30.8770    33.6110 ha         1 QZY       0.109000
     39 H7         -84.4610    28.0000    36.5990 ha         1 QZY       0.109000
     40 H8         -84.1590    26.4750    26.0490 ha         1 QZY       0.145000
     41 H9         -83.6120    25.4120    28.1030 ha         1 QZY       0.124000
     42 H10        -85.9620    27.7070    31.7900 ha         1 QZY       0.117500
     43 H11        -83.1950    26.4910    20.1170 h1         1 QZY       0.041200
     44 H12        -82.3840    26.6390    21.6570 h1         1 QZY       0.041200
     45 H13        -85.2460    27.1450    20.0150 h1         1 QZY       0.064200
     46 H14        -86.3610    27.1050    21.3310 h1         1 QZY       0.064200
     47 H15        -86.1920    25.9660    18.2790 ha         1 QZY       0.116500
     48 H16        -87.1530    23.9050    17.3360 ha         1 QZY       0.104000
     49 H17        -87.6540    21.9800    18.8130 ha         1 QZY       0.099000
     50 H18        -87.1860    22.1470    21.2390 ha         1 QZY       0.104000
     51 H19        -86.2300    24.1970    22.1780 ha         1 QZY       0.116500
     52 H20        -81.8030    24.4930    20.6010 hc         1 QZY       0.037367
     53 H21        -82.7290    24.1710    22.0640 hc         1 QZY       0.037367
     54 H22        -83.5000    24.0350    20.4810 hc         1 QZY       0.037367
     55 H23        -86.6280    26.4830    23.0780 hn         1 QZY       0.389500
     56 C05        -88.6390    26.6060    24.4660 c          1 QZY       0.743600
     57 N01        -85.7720    26.4670    23.6420 ns         1 QZY      -0.415100
@<TRIPOS>BOND
     1     1    10 ar  
     2     1    11 ar  
     3     1    33 1   
     4     2    11 ar  
     5     2    12 ar  
     6     2    34 1   
     7     3    10 ar  
     8     3    12 ar  
     9     3    35 1   
    10     4     5 2   
    11     4    32 1   
    12     4    56 1   
    13     5    13 1   
    14     5    57 1   
    15     6     7 1   
    16     6    13 2   
    17     6    32 1   
    18     7     9 ar  
    19     7    14 ar  
    20     8    14 ar  
    21     8    15 ar  
    22     8    36 1   
    23     9    16 ar  
    24     9    37 1   
    25    10    30 1   
    26    11    38 1   
    27    12    39 1   
    28    13    40 1   
    29    14    41 1   
    30    15    16 ar  
    31    15    30 1   
    32    16    42 1   
    33    17    27 1   
    34    17    31 2   
    35    17    57 1   
    36    18    26 1   
    37    18    27 1   
    38    18    43 1   
    39    18    44 1   
    40    19    20 1   
    41    19    27 1   
    42    19    45 1   
    43    19    46 1   
    44    20    21 ar  
    45    20    25 ar  
    46    21    22 ar  
    47    21    47 1   
    48    22    23 ar  
    49    22    48 1   
    50    23    24 ar  
    51    23    49 1   
    52    24    25 ar  
    53    24    50 1   
    54    25    51 1   
    55    26    52 1   
    56    26    53 1   
    57    26    54 1   
    58    28    56 1   
    59    29    56 1   
    60    55    57 1   
@<TRIPOS>SUBSTRUCTURE
     1 QZY         1 TEMP              0 ****  ****    0 ROOT
