@<TRIPOS>MOLECULE
QZZ
   39    41     1     0     0
SMALL
No Charge or Current Charge


@<TRIPOS>ATOM
      1 C5           3.9410    -2.8580     0.0920 ca         1 QZZ      -0.074000
      2 C6           2.7930    -2.0490     0.0460 ca         1 QZZ      -0.116000
      3 C19         -3.1810     0.7250    -0.8620 ca         1 QZZ      -0.107000
      4 C23         -2.4240    -0.9920     0.6650 ca         1 QZZ      -0.107000
      5 C20         -4.4820     0.1960    -0.8150 ca         1 QZZ      -0.093500
      6 C22         -3.7250    -1.5220     0.7170 ca         1 QZZ      -0.093500
      7 C4           5.2180    -2.2800     0.0860 ca         1 QZZ      -0.190000
      8 C8           4.1970    -0.0740    -0.0120 ca         1 QZZ      -0.138000
      9 C18         -2.1310     0.1540    -0.1060 ca         1 QZZ      -0.136800
     10 C7           2.8950    -0.6360    -0.0080 ca         1 QZZ      -0.036800
     11 C21         -4.7770    -0.9330    -0.0190 ca         1 QZZ      -0.106600
     12 C3           5.3470    -0.8790     0.0340 ca         1 QZZ       0.138100
     13 C10          0.3850    -0.2240    -0.0820 cc         1 QZZ      -0.274000
     14 C12         -0.5040     2.0400    -0.0860 cd         1 QZZ      -0.150900
     15 C11         -0.7430     0.6690    -0.1570 cc         1 QZZ       0.163800
     16 C9           1.6860     0.2370    -0.0570 cd         1 QZZ       0.120400
     17 C13          0.8850     2.5600    -0.0650 c          1 QZZ       0.572200
     18 C24         -6.1860    -1.5070     0.0340 c          1 QZZ       0.711600
     19 N17         -2.2910     3.8950     0.1850 n1         1 QZZ      -0.469000
     20 N15          1.8630     1.6020    -0.0710 ns         1 QZZ      -0.364100
     21 O14          1.1920     3.7450    -0.0330 o          1 QZZ      -0.563000
     22 O25         -7.0650    -0.9650    -0.6230 o          1 QZZ      -0.713000
     23 O26         -6.3930    -2.4910     0.7310 o          1 QZZ      -0.713000
     24 O2           6.5750    -0.2480     0.0250 os         1 QZZ      -0.341100
     25 H5           3.8370    -3.9410     0.1330 ha         1 QZZ       0.115000
     26 H6           1.8310    -2.5480     0.0560 ha         1 QZZ       0.133000
     27 H4           6.0860    -2.9310     0.1230 ha         1 QZZ       0.115000
     28 H19         -2.9930     1.5630    -1.5280 ha         1 QZZ       0.095000
     29 H20         -5.2610     0.6630    -1.4120 ha         1 QZZ       0.133500
     30 H23         -1.6490    -1.4670     1.2610 ha         1 QZZ       0.095000
     31 H22         -3.9120    -2.3960     1.3360 ha         1 QZZ       0.133500
     32 H8           4.3450     1.0000    -0.0530 ha         1 QZZ       0.132000
     33 H10          0.1680    -1.2830    -0.0900 ha         1 QZZ       0.211000
     34 H15          2.7990     1.9810    -0.0560 hn         1 QZZ       0.323500
     35 H11C         7.9040    -1.6460    -0.7970 h1         1 QZZ       0.040367
     36 H12C         8.6640    -0.2850     0.0530 h1         1 QZZ       0.040367
     37 H13C         7.8810    -1.5770     0.9860 h1         1 QZZ       0.040367
     38 C1           7.8140    -0.9780     0.0690 c3         1 QZZ       0.150900
     39 C16         -1.4870     3.0580     0.0480 ch         1 QZZ       0.324700
@<TRIPOS>BOND
     1     1     2 ar  
     2     1     7 ar  
     3     1    25 1   
     4     2    10 ar  
     5     2    26 1   
     6     3     5 ar  
     7     3     9 ar  
     8     3    28 1   
     9     4     6 ar  
    10     4     9 ar  
    11     4    30 1   
    12     5    11 ar  
    13     5    29 1   
    14     6    11 ar  
    15     6    31 1   
    16     7    12 ar  
    17     7    27 1   
    18     8    10 ar  
    19     8    12 ar  
    20     8    32 1   
    21     9    15 1   
    22    10    16 1   
    23    11    18 1   
    24    12    24 1   
    25    13    15 1   
    26    13    16 2   
    27    13    33 1   
    28    14    15 2   
    29    14    17 1   
    30    14    39 1   
    31    16    20 1   
    32    17    20 1   
    33    17    21 2   
    34    18    22 1   
    35    18    23 1   
    36    19    39 3   
    37    20    34 1   
    38    24    38 1   
    39    35    38 1   
    40    36    38 1   
    41    37    38 1   
@<TRIPOS>SUBSTRUCTURE
     1 QZZ         1 TEMP              0 ****  ****    0 ROOT
