@<TRIPOS>MOLECULE
QZZ
   39    41     1     0     0
SMALL
bcc


@<TRIPOS>ATOM
      1 C5           3.9420    -2.6240    -0.9120 ca         1 QZZ      -0.092000
      2 C6           2.8160    -1.8210    -0.9240 ca         1 QZZ      -0.134000
      3 C19         -3.0780     0.5140    -0.8440 ca         1 QZZ      -0.125000
      4 C23         -2.2740    -0.7930     1.0040 ca         1 QZZ      -0.125000
      5 C20         -4.3370    -0.0410    -0.6810 ca         1 QZZ      -0.111500
      6 C22         -3.5400    -1.3290     1.1700 ca         1 QZZ      -0.111500
      7 C4           5.1280    -2.1940    -0.3300 ca         1 QZZ      -0.208000
      8 C8           4.0600    -0.1100     0.2380 ca         1 QZZ      -0.156000
      9 C18         -2.0320     0.1450     0.0010 ca         1 QZZ      -0.136800
     10 C7           2.8780    -0.5530    -0.3440 ca         1 QZZ      -0.036800
     11 C21         -4.5890    -0.9640     0.3300 ca         1 QZZ      -0.106600
     12 C3           5.1900    -0.9290     0.2500 ca         1 QZZ       0.138100
     13 C10          0.4200    -0.1780    -0.1750 cc         1 QZZ      -0.224000
     14 C12         -0.4500     2.0580    -0.3110 cd         1 QZZ      -0.150900
     15 C11         -0.6800     0.7010    -0.1710 cc         1 QZZ       0.163800
     16 C9           1.6880     0.3090    -0.3430 cd         1 QZZ       0.120400
     17 C13          0.8780     2.5950    -0.4960 c          1 QZZ       0.714700
     18 C24         -5.9800    -1.5660     0.5110 c          1 QZZ       0.922200
     19 N17         -2.3000     3.8350    -0.1420 n1         1 QZZ      -0.379800
     20 N15          1.8730     1.6370    -0.5050 ns         1 QZZ      -0.431100
     21 O14          1.1430     3.7790    -0.6370 o          1 QZZ      -0.638500
     22 O25         -6.8540    -1.1920    -0.2930 o          1 QZZ      -0.818300
     23 O26         -6.1150    -2.3780     1.4450 o          1 QZZ      -0.818300
     24 O2           6.2800    -0.4180     0.8440 os         1 QZZ      -0.317900
     25 H5           3.9060    -3.6030    -1.3710 ha         1 QZZ       0.133000
     26 H6           1.9090    -2.1650    -1.4020 ha         1 QZZ       0.151000
     27 H4           5.9860    -2.8520    -0.3400 ha         1 QZZ       0.133000
     28 H19         -2.9060     1.2140    -1.6520 ha         1 QZZ       0.113000
     29 H20         -5.1340     0.2440    -1.3540 ha         1 QZZ       0.151500
     30 H23         -1.4740    -1.0880     1.6720 ha         1 QZZ       0.113000
     31 H22         -3.7160    -2.0440     1.9630 ha         1 QZZ       0.151500
     32 H8           4.1200     0.8580     0.7220 ha         1 QZZ       0.150000
     33 H10          0.2670    -1.2380    -0.0420 ha         1 QZZ       0.161000
     34 H15          2.8100     1.9810    -0.6810 hn         1 QZZ       0.323500
     35 H11C         7.8280    -1.4780    -0.0690 h1         1 QZZ       0.040367
     36 H12C         8.1950    -0.6140     1.4340 h1         1 QZZ       0.040367
     37 H13C         7.2790    -2.1300     1.4910 h1         1 QZZ       0.040367
     38 C1           7.4480    -1.2140     0.9200 c3         1 QZZ       0.127700
     39 C16         -1.4840     3.0250    -0.2260 ch         1 QZZ       0.235500
@<TRIPOS>BOND
     1     1     2 ar  
     2     1     7 ar  
     3     1    25 1   
     4     2    10 ar  
     5     2    26 1   
     6     3     5 ar  
     7     3     9 ar  
     8     3    28 1   
     9     4     6 ar  
    10     4     9 ar  
    11     4    30 1   
    12     5    11 ar  
    13     5    29 1   
    14     6    11 ar  
    15     6    31 1   
    16     7    12 ar  
    17     7    27 1   
    18     8    10 ar  
    19     8    12 ar  
    20     8    32 1   
    21     9    15 1   
    22    10    16 1   
    23    11    18 1   
    24    12    24 1   
    25    13    15 1   
    26    13    16 2   
    27    13    33 1   
    28    14    15 2   
    29    14    17 1   
    30    14    39 1   
    31    16    20 1   
    32    17    20 1   
    33    17    21 2   
    34    18    22 1   
    35    18    23 1   
    36    19    39 3   
    37    20    34 1   
    38    24    38 1   
    39    35    38 1   
    40    36    38 1   
    41    37    38 1   
@<TRIPOS>SUBSTRUCTURE
     1 QZZ         1 TEMP              0 ****  ****    0 ROOT
