@<TRIPOS>MOLECULE
W00
   27    27     1     0     0
SMALL
abcg2


@<TRIPOS>ATOM
      1 N1           6.1840     2.0980    -4.6760 nt         1 W00      -0.607000
      2 C7          10.5660    -0.3070    -5.6810 c3         1 W00      -0.055400
      3 C8           8.0190     0.7950    -5.5520 c3         1 W00      -0.057400
      4 C9           6.6630     0.8590    -4.8720 c          1 W00       0.615100
      5 O1           6.0510    -0.1570    -4.5510 o          1 W00      -0.579100
      6 C1          10.2450     2.7160   -10.9500 ca         1 W00      -0.117500
      7 C5          10.4150     1.0240    -9.2250 ca         1 W00      -0.040000
      8 C6          10.5520    -0.4300    -7.1940 c          1 W00       0.604100
      9 C4          10.3600     0.0250   -10.2010 ca         1 W00      -0.124500
     10 C3          10.2460     0.3720   -11.5430 ca         1 W00      -0.117500
     11 C2          10.1900     1.7060   -11.8940 ca         1 W00       0.140000
     12 F           10.0780     2.0390   -13.2070 f          1 W00      -0.182000
     13 C           10.3570     2.3670    -9.6130 ca         1 W00      -0.124500
     14 N           10.5200     0.7630    -7.8460 ns         1 W00      -0.151000
     15 O           10.5440    -1.5240    -7.7480 o          1 W00      -0.558100
     16 S            8.9300    -0.6670    -4.9580 ss         1 W00      -0.297000
     17 H1           5.2580     2.2180    -4.2930 hn         1 W00       0.318000
     18 H2           6.6980     2.9180    -4.9540 hn         1 W00       0.318000
     19 H3          11.2260    -1.0750    -5.2810 h1         1 W00       0.092200
     20 H4          10.9080     0.6700    -5.3420 h1         1 W00       0.092200
     21 H5           8.6040     1.6940    -5.3560 h1         1 W00       0.073200
     22 H6           7.8520     0.7210    -6.6280 h1         1 W00       0.073200
     23 H8          10.4050    -1.0110    -9.9130 ha         1 W00       0.133500
     24 H9          10.2020    -0.3910   -12.3090 ha         1 W00       0.135500
     25 H10         10.3980     3.1440    -8.8600 ha         1 W00       0.133500
     26 H11         10.5530     1.5870    -7.2640 hn         1 W00       0.145000
     27 H7          10.1990     3.7530   -11.2550 ha         1 W00       0.135500
@<TRIPOS>BOND
     1     1     4 1   
     2     1    17 1   
     3     1    18 1   
     4     2     8 1   
     5     2    16 1   
     6     2    19 1   
     7     2    20 1   
     8     3     4 1   
     9     3    16 1   
    10     3    21 1   
    11     3    22 1   
    12     4     5 2   
    13     6    11 ar  
    14     6    13 ar  
    15     6    27 1   
    16     7     9 ar  
    17     7    13 ar  
    18     7    14 1   
    19     8    14 1   
    20     8    15 2   
    21     9    10 ar  
    22     9    23 1   
    23    10    11 ar  
    24    10    24 1   
    25    11    12 1   
    26    13    25 1   
    27    14    26 1   
@<TRIPOS>SUBSTRUCTURE
     1 W00         1 TEMP              0 ****  ****    0 ROOT
