@<TRIPOS>MOLECULE
W00
   27    27     1     0     0
SMALL
No Charge or Current Charge


@<TRIPOS>ATOM
      1 N1           5.9860     2.0090    -5.1610 nt         1 W00      -0.607000
      2 C7          10.6970    -0.4090    -5.6300 c3         1 W00      -0.055400
      3 C8           8.1110     0.8100    -5.3570 c3         1 W00      -0.057400
      4 C9           6.7020     0.9410    -4.7460 c          1 W00       0.615100
      5 O1           6.2220     0.1600    -3.9400 o          1 W00      -0.579100
      6 C1          10.3020     2.7810   -10.8910 ca         1 W00      -0.117500
      7 C5          10.3910     1.0100    -9.2050 ca         1 W00      -0.040000
      8 C6          10.5860    -0.5390    -7.1570 c          1 W00       0.604100
      9 C4          10.2150     0.0490   -10.2280 ca         1 W00      -0.124500
     10 C3          10.0860     0.4560   -11.5690 ca         1 W00      -0.117500
     11 C2          10.1310     1.8190   -11.8960 ca         1 W00       0.140000
     12 F           10.0060     2.2070   -13.1840 f          1 W00      -0.182000
     13 C           10.4300     2.3760    -9.5500 ca         1 W00      -0.124500
     14 N           10.5240     0.6780    -7.8270 ns         1 W00      -0.151000
     15 O           10.5580    -1.6350    -7.7060 o          1 W00      -0.558100
     16 S            9.0740    -0.6680    -4.7560 ss         1 W00      -0.297000
     17 H1           5.0550     2.1500    -4.7970 hn         1 W00       0.318000
     18 H2           6.3790     2.6580    -5.8280 hn         1 W00       0.318000
     19 H3          11.4160    -1.1620    -5.2860 h1         1 W00       0.092200
     20 H4          11.0970     0.5820    -5.3800 h1         1 W00       0.092200
     21 H5           8.6660     1.7250    -5.1170 h1         1 W00       0.073200
     22 H6           7.9950     0.7520    -6.4460 h1         1 W00       0.073200
     23 H8          10.1710    -1.0130   -10.0090 ha         1 W00       0.133500
     24 H9           9.9510    -0.2830   -12.3540 ha         1 W00       0.135500
     25 H10         10.5620     3.1310    -8.7760 ha         1 W00       0.133500
     26 H11         10.5760     1.4860    -7.2200 hn         1 W00       0.145000
     27 H7          10.3340     3.8360   -11.1500 ha         1 W00       0.135500
@<TRIPOS>BOND
     1     1     4 1   
     2     1    17 1   
     3     1    18 1   
     4     2     8 1   
     5     2    16 1   
     6     2    19 1   
     7     2    20 1   
     8     3     4 1   
     9     3    16 1   
    10     3    21 1   
    11     3    22 1   
    12     4     5 2   
    13     6    11 ar  
    14     6    13 ar  
    15     6    27 1   
    16     7     9 ar  
    17     7    13 ar  
    18     7    14 1   
    19     8    14 1   
    20     8    15 2   
    21     9    10 ar  
    22     9    23 1   
    23    10    11 ar  
    24    10    24 1   
    25    11    12 1   
    26    13    25 1   
    27    14    26 1   
@<TRIPOS>SUBSTRUCTURE
     1 W00         1 TEMP              0 ****  ****    0 ROOT
