@<TRIPOS>MOLECULE
W01
   45    47     1     0     0
SMALL
No Charge or Current Charge


@<TRIPOS>ATOM
      1 O1          -1.2410     0.0680    -5.9690 os         1 W01      -0.075700
      2 N2          -0.9580     0.4400    -7.3370 nc         1 W01      -0.364300
      3 C3           0.2840     0.0350    -7.5350 cd         1 W01       0.279300
      4 CM3          0.9590     0.2420    -8.8600 c3         1 W01      -0.133400
      5 C4           0.8370    -0.5750    -6.3980 cd         1 W01      -0.249000
      6 C5          -0.1270    -0.5400    -5.4430 cc         1 W01       0.184300
      7 C1C         -0.1420    -1.0340    -4.0240 c3         1 W01      -0.115700
      8 C2C         -0.0290     0.1080    -2.9900 c3         1 W01      -0.080400
      9 C3C         -0.0350    -0.3940    -1.5340 c3         1 W01       0.166600
     10 O1B          0.0750     0.7530    -0.6790 os         1 W01      -0.369100
     11 C1B          0.0930     0.5660     0.6830 ca         1 W01       0.112100
     12 C2B          1.3220     0.3770     1.3490 ca         1 W01      -0.093800
     13 CM2          2.6400     0.3840     0.5800 c3         1 W01      -0.040800
     14 C3B          1.3300     0.1780     2.7430 ca         1 W01      -0.072000
     15 C4B          0.1280     0.1710     3.4880 ca         1 W01      -0.125500
     16 C5B         -1.0910     0.3750     2.8010 ca         1 W01      -0.072000
     17 C6B         -1.1180     0.5760     1.4070 ca         1 W01      -0.093800
     18 CM6         -2.4530     0.7970     0.7020 c3         1 W01      -0.040800
     19 C2A          0.1370    -0.0390     4.9490 cc         1 W01       0.560500
     20 N1A          1.3070    -0.2350     5.6260 nc         1 W01      -0.382000
     21 N3A         -0.9500    -0.0530     5.6870 nd         1 W01      -0.528800
     22 N4A         -0.3840    -0.2740     6.9050 na         1 W01       0.247600
     23 CM4         -1.1660    -0.3900     8.1430 c3         1 W01       0.075900
     24 N5A          0.9790    -0.3870     6.8770 nd         1 W01      -0.178800
     25 HM31         1.9820    -0.1520    -8.8470 hc         1 W01       0.056033
     26 HM32         0.4130    -0.2680    -9.6620 hc         1 W01       0.056033
     27 HM33         1.0130     1.3080    -9.1100 hc         1 W01       0.056033
     28 H4           1.8330    -0.9900    -6.3000 ha         1 W01       0.151000
     29 H1C1         0.6860    -1.7390    -3.8770 hc         1 W01       0.063200
     30 H1C2        -1.0670    -1.5960    -3.8460 hc         1 W01       0.063200
     31 H2C1        -0.8630     0.8070    -3.1290 hc         1 W01       0.066700
     32 H2C2         0.8960     0.6690    -3.1700 hc         1 W01       0.066700
     33 H3C1         0.8080    -1.0780    -1.3750 h1         1 W01       0.029200
     34 H3C2        -0.9660    -0.9390    -1.3340 h1         1 W01       0.029200
     35 HM21         2.7760    -0.5540     0.0280 hc         1 W01       0.045700
     36 HM22         2.6760     1.2080    -0.1420 hc         1 W01       0.045700
     37 HM23         3.5000     0.5020     1.2490 hc         1 W01       0.045700
     38 H3B          2.2840     0.0270     3.2450 ha         1 W01       0.132000
     39 H5B         -2.0300     0.3780     3.3510 ha         1 W01       0.132000
     40 HM61        -2.7600    -0.1010     0.1540 hc         1 W01       0.045700
     41 HM62        -3.2520     1.0420     1.4120 hc         1 W01       0.045700
     42 HM63        -2.3910     1.6240    -0.0150 hc         1 W01       0.045700
     43 HM41        -2.1590     0.0510     7.9970 h1         1 W01       0.071700
     44 HM42        -1.2710    -1.4480     8.4070 h1         1 W01       0.071700
     45 HM43        -0.6510     0.1400     8.9530 h1         1 W01       0.071700
@<TRIPOS>BOND
     1     1     2 1   
     2     1     6 1   
     3     2     3 2   
     4     3     4 1   
     5     3     5 1   
     6     4    25 1   
     7     4    26 1   
     8     4    27 1   
     9     5     6 2   
    10     5    28 1   
    11     6     7 1   
    12     7     8 1   
    13     7    29 1   
    14     7    30 1   
    15     8     9 1   
    16     8    31 1   
    17     8    32 1   
    18     9    10 1   
    19     9    33 1   
    20     9    34 1   
    21    10    11 1   
    22    11    12 ar  
    23    11    17 ar  
    24    12    13 1   
    25    12    14 ar  
    26    13    35 1   
    27    13    36 1   
    28    13    37 1   
    29    14    15 ar  
    30    14    38 1   
    31    15    16 ar  
    32    15    19 1   
    33    16    17 ar  
    34    16    39 1   
    35    17    18 1   
    36    18    40 1   
    37    18    41 1   
    38    18    42 1   
    39    19    20 1   
    40    19    21 2   
    41    20    24 2   
    42    21    22 1   
    43    22    23 1   
    44    22    24 1   
    45    23    43 1   
    46    23    44 1   
    47    23    45 1   
@<TRIPOS>SUBSTRUCTURE
     1 W01         1 TEMP              0 ****  ****    0 ROOT
