@<TRIPOS>MOLECULE
W01
   45    47     1     0     0
SMALL
bcc


@<TRIPOS>ATOM
      1 O1          -0.9450     0.3340    -5.8620 os         1 W01      -0.120100
      2 N2          -0.6210     0.5930    -7.1650 nc         1 W01      -0.364300
      3 C3           0.4590    -0.0890    -7.4180 cd         1 W01       0.344600
      4 CM3          1.1060    -0.0480    -8.7550 c3         1 W01      -0.133400
      5 C4           0.8730    -0.8180    -6.2710 cd         1 W01      -0.397600
      6 C5          -0.0520    -0.5080    -5.3330 cc         1 W01       0.294000
      7 C1C         -0.2210    -0.9010    -3.9120 c3         1 W01      -0.115700
      8 C2C         -0.0970     0.2800    -2.9470 c3         1 W01      -0.080400
      9 C3C         -0.1850    -0.1950    -1.5120 c3         1 W01       0.143400
     10 O1B         -0.0750     0.9400    -0.6590 os         1 W01      -0.345900
     11 C1B         -0.0120     0.6580     0.6740 ca         1 W01       0.112100
     12 C2B          1.2390     0.4710     1.2650 ca         1 W01      -0.093800
     13 CM2          2.4960     0.5730     0.4520 c3         1 W01      -0.040800
     14 C3B          1.2920     0.2220     2.6300 ca         1 W01      -0.090000
     15 C4B          0.1310     0.1560     3.3940 ca         1 W01      -0.125500
     16 C5B         -1.1020     0.3560     2.7800 ca         1 W01      -0.090000
     17 C6B         -1.1930     0.6080     1.4170 ca         1 W01      -0.093800
     18 CM6         -2.5230     0.8580     0.7700 c3         1 W01      -0.040800
     19 C2A          0.2090    -0.1030     4.8270 cc         1 W01       0.560500
     20 N1A          1.3550    -0.2880     5.5070 nc         1 W01      -0.382000
     21 N3A         -0.8350    -0.1820     5.6330 nd         1 W01      -0.528800
     22 N4A         -0.2760    -0.4160     6.7910 na         1 W01       0.276900
     23 CM4         -1.0310    -0.5890     8.0110 c3         1 W01       0.046600
     24 N5A          1.0210    -0.4840     6.7400 nd         1 W01      -0.178800
     25 HM31         2.1330     0.3080    -8.6710 hc         1 W01       0.056033
     26 HM32         1.1440    -1.0460    -9.1930 hc         1 W01       0.056033
     27 HM33         0.5680     0.6090    -9.4350 hc         1 W01       0.056033
     28 H4           1.7260    -1.4670    -6.1710 ha         1 W01       0.169000
     29 H1C1         0.5390    -1.6510    -3.6860 hc         1 W01       0.063200
     30 H1C2        -1.1910    -1.3880    -3.7800 hc         1 W01       0.063200
     31 H2C1        -0.8880     1.0080    -3.1390 hc         1 W01       0.066700
     32 H2C2         0.8590     0.7850    -3.1050 hc         1 W01       0.066700
     33 H3C1         0.6170    -0.9120    -1.3030 h1         1 W01       0.029200
     34 H3C2        -1.1350    -0.7120    -1.3390 h1         1 W01       0.029200
     35 HM21         2.5780    -0.2320    -0.2800 hc         1 W01       0.045700
     36 HM22         2.5390     1.5120    -0.1000 hc         1 W01       0.045700
     37 HM23         3.3750     0.5200     1.0930 hc         1 W01       0.045700
     38 H3B          2.2560     0.0780     3.1020 ha         1 W01       0.150000
     39 H5B         -2.0100     0.3200     3.3690 ha         1 W01       0.150000
     40 HM61        -2.7650     0.1000     0.0220 hc         1 W01       0.045700
     41 HM62        -3.3200     0.8490     1.5120 hc         1 W01       0.045700
     42 HM63        -2.5460     1.8240     0.2640 hc         1 W01       0.045700
     43 HM41        -1.6440     0.2910     8.1860 h1         1 W01       0.071700
     44 HM42        -1.6640    -1.4680     7.9270 h1         1 W01       0.071700
     45 HM43        -0.3300    -0.7170     8.8280 h1         1 W01       0.071700
@<TRIPOS>BOND
     1     1     2 1   
     2     1     6 1   
     3     2     3 2   
     4     3     4 1   
     5     3     5 1   
     6     4    25 1   
     7     4    26 1   
     8     4    27 1   
     9     5     6 2   
    10     5    28 1   
    11     6     7 1   
    12     7     8 1   
    13     7    29 1   
    14     7    30 1   
    15     8     9 1   
    16     8    31 1   
    17     8    32 1   
    18     9    10 1   
    19     9    33 1   
    20     9    34 1   
    21    10    11 1   
    22    11    12 ar  
    23    11    17 ar  
    24    12    13 1   
    25    12    14 ar  
    26    13    35 1   
    27    13    36 1   
    28    13    37 1   
    29    14    15 ar  
    30    14    38 1   
    31    15    16 ar  
    32    15    19 1   
    33    16    17 ar  
    34    16    39 1   
    35    17    18 1   
    36    18    40 1   
    37    18    41 1   
    38    18    42 1   
    39    19    20 1   
    40    19    21 2   
    41    20    24 2   
    42    21    22 1   
    43    22    23 1   
    44    22    24 1   
    45    23    43 1   
    46    23    44 1   
    47    23    45 1   
@<TRIPOS>SUBSTRUCTURE
     1 W01         1 TEMP              0 ****  ****    0 ROOT
