@<TRIPOS>MOLECULE
W02
   45    47     1     0     0
SMALL
bcc


@<TRIPOS>ATOM
      1 O1          -0.9440    -0.3280     5.8470 os         1 W02      -0.120100
      2 N2          -0.5830    -0.5840     7.1410 nc         1 W02      -0.363300
      3 C3           0.5100     0.0910     7.3570 cd         1 W02       0.344600
      4 CM3          1.1980     0.0500     8.6740 c3         1 W02      -0.133400
      5 C4           0.8940     0.8120     6.1950 cd         1 W02      -0.395600
      6 C5          -0.0610     0.5050     5.2870 cc         1 W02       0.292000
      7 C1C         -0.2690     0.8890     3.8680 c3         1 W02      -0.115700
      8 C2C         -0.1320    -0.2950     2.9080 c3         1 W02      -0.080400
      9 C3C         -0.2680     0.1660     1.4730 c3         1 W02       0.142400
     10 O1B         -0.1430    -0.9750     0.6250 os         1 W02      -0.342900
     11 C1B         -0.0500    -0.6970    -0.7060 ca         1 W02       0.107100
     12 C2B          1.2130    -0.4930    -1.2660 ca         1 W02      -0.077300
     13 CM2          2.4500    -0.5710    -0.4210 c3         1 W02      -0.043800
     14 C3B          1.3040    -0.2400    -2.6280 ca         1 W02      -0.108500
     15 C4B          0.1530    -0.2010    -3.4010 ca         1 W02       0.002800
     16 C5B         -1.0950    -0.4180    -2.8410 ca         1 W02      -0.108500
     17 C6B         -1.2110    -0.6660    -1.4790 ca         1 W02      -0.077300
     18 CM6         -2.5530    -0.9420    -0.8680 c3         1 W02      -0.043800
     19 N2A          0.2540     0.0490    -4.7900 na         1 W02       0.348800
     20 N1A          1.3690    -0.0690    -5.4550 nc         1 W02      -0.172800
     21 N3A         -0.7610     0.4180    -5.5360 nc         1 W02      -0.527800
     22 C4A         -0.2110     0.5270    -6.7280 cd         1 W02       0.503300
     23 CM4         -0.9410     0.9080    -7.9600 c3         1 W02      -0.111400
     24 N5A          1.1010     0.2320    -6.6810 nd         1 W02      -0.384000
     25 HM33         2.2150    -0.3250     8.5620 hc         1 W02       0.056700
     26 HM32         0.6690    -0.5930     9.3760 hc         1 W02       0.056700
     27 HM31         1.2650     1.0500     9.1030 hc         1 W02       0.056700
     28 H4           1.7490     1.4550     6.0670 ha         1 W02       0.169000
     29 H1C2         0.4670     1.6560     3.6230 hc         1 W02       0.063700
     30 H1C1        -1.2540     1.3500     3.7540 hc         1 W02       0.063700
     31 H2C2        -0.8960    -1.0450     3.1240 hc         1 W02       0.067200
     32 H2C1         0.8430    -0.7700     3.0470 hc         1 W02       0.067200
     33 H3C2         0.5060     0.9050     1.2390 h1         1 W02       0.031200
     34 H3C1        -1.2380     0.6510     1.3150 h1         1 W02       0.031200
     35 HM23         2.5080     0.2520     0.2940 hc         1 W02       0.049367
     36 HM22         3.3450    -0.5270    -1.0400 hc         1 W02       0.049367
     37 HM21         2.4820    -1.4970     0.1520 hc         1 W02       0.049367
     38 H3B          2.2730    -0.0700    -3.0760 ha         1 W02       0.162000
     39 H5B         -1.9830    -0.4000    -3.4590 ha         1 W02       0.162000
     40 HM63        -3.3360    -0.9080    -1.6230 hc         1 W02       0.049367
     41 HM62        -2.8100    -0.2140    -0.0970 hc         1 W02       0.049367
     42 HM61        -2.5790    -1.9260    -0.4000 hc         1 W02       0.049367
     43 HM43        -1.2960     0.0230    -8.4890 hc         1 W02       0.060367
     44 HM42        -1.8050     1.5250    -7.7220 hc         1 W02       0.060367
     45 HM41        -0.2900     1.4600    -8.6340 hc         1 W02       0.060367
@<TRIPOS>BOND
     1     1     2 1   
     2     1     6 1   
     3     2     3 2   
     4     3     4 1   
     5     3     5 1   
     6     4    25 1   
     7     4    26 1   
     8     4    27 1   
     9     5     6 2   
    10     5    28 1   
    11     6     7 1   
    12     7     8 1   
    13     7    29 1   
    14     7    30 1   
    15     8     9 1   
    16     8    31 1   
    17     8    32 1   
    18     9    10 1   
    19     9    33 1   
    20     9    34 1   
    21    10    11 1   
    22    11    12 ar  
    23    11    17 ar  
    24    12    13 1   
    25    12    14 ar  
    26    13    35 1   
    27    13    36 1   
    28    13    37 1   
    29    14    15 ar  
    30    14    38 1   
    31    15    16 ar  
    32    15    19 1   
    33    16    17 ar  
    34    16    39 1   
    35    17    18 1   
    36    18    40 1   
    37    18    41 1   
    38    18    42 1   
    39    19    20 1   
    40    19    21 1   
    41    20    24 2   
    42    21    22 2   
    43    22    23 1   
    44    22    24 1   
    45    23    43 1   
    46    23    44 1   
    47    23    45 1   
@<TRIPOS>SUBSTRUCTURE
     1 W02         1 TEMP              0 ****  ****    0 ROOT
