@<TRIPOS>MOLECULE
W02
   45    47     1     0     0
SMALL
No Charge or Current Charge


@<TRIPOS>ATOM
      1 O1          -1.2420    -0.1090     5.9120 os         1 W02      -0.075700
      2 N2          -0.9370    -0.4320     7.2880 nc         1 W02      -0.363300
      3 C3           0.2790     0.0490     7.4750 cd         1 W02       0.279300
      4 CM3          0.9660    -0.0870     8.8030 c3         1 W02      -0.133400
      5 C4           0.7960     0.6640     6.3230 cd         1 W02      -0.247000
      6 C5          -0.1650     0.5500     5.3710 cc         1 W02       0.182300
      7 C1C         -0.2090     1.0090     3.9410 c3         1 W02      -0.115700
      8 C2C         -0.0300    -0.1490     2.9330 c3         1 W02      -0.080400
      9 C3C         -0.0670     0.3180     1.4660 c3         1 W02       0.165600
     10 O1B          0.1100    -0.8400     0.6380 os         1 W02      -0.366100
     11 C1B          0.1150    -0.6870    -0.7280 ca         1 W02       0.107100
     12 C2B          1.3330    -0.4410    -1.4010 ca         1 W02      -0.077300
     13 CM2          2.6490    -0.3490    -0.6360 c3         1 W02      -0.043800
     14 C3B          1.3270    -0.2760    -2.8000 ca         1 W02      -0.090500
     15 C4B          0.1240    -0.3620    -3.5300 ca         1 W02       0.002800
     16 C5B         -1.0820    -0.6180    -2.8470 ca         1 W02      -0.090500
     17 C6B         -1.0950    -0.7860    -1.4490 ca         1 W02      -0.077300
     18 CM6         -2.4140    -1.0690    -0.7350 c3         1 W02      -0.043800
     19 N2A          0.1270    -0.1970    -4.9190 na         1 W02       0.348800
     20 N1A          0.9980    -0.8660    -5.7190 nc         1 W02      -0.172800
     21 N3A         -0.7410     0.6330    -5.5420 nc         1 W02      -0.527800
     22 C4A         -0.3530     0.4410    -6.7860 cd         1 W02       0.503300
     23 CM4         -0.9990     1.1400    -7.9450 c3         1 W02      -0.111400
     24 N5A          0.6910    -0.4560    -6.9180 nd         1 W02      -0.384000
     25 HM33         1.9630     0.3690     8.7800 hc         1 W02       0.056700
     26 HM32         1.0860    -1.1420     9.0760 hc         1 W02       0.056700
     27 HM31         0.3900     0.4060     9.5940 hc         1 W02       0.056700
     28 H4           1.7660     1.1340     6.2140 ha         1 W02       0.151000
     29 H1C2         0.5750     1.7580     3.7750 hc         1 W02       0.063700
     30 H1C1        -1.1660     1.5110     3.7510 hc         1 W02       0.063700
     31 H2C2        -0.8220    -0.8920     3.0900 hc         1 W02       0.067200
     32 H2C1         0.9260    -0.6500     3.1250 hc         1 W02       0.067200
     33 H3C2         0.7350     1.0470     1.2890 h1         1 W02       0.031200
     34 H3C1        -1.0290     0.8020     1.2550 h1         1 W02       0.031200
     35 HM23         2.7300     0.6090    -0.1090 hc         1 W02       0.049367
     36 HM22         3.5140    -0.4330    -1.3040 hc         1 W02       0.049367
     37 HM21         2.7350    -1.1500     0.1080 hc         1 W02       0.049367
     38 H3B          2.2610    -0.0780    -3.3220 ha         1 W02       0.144000
     39 H5B         -2.0120    -0.6890    -3.4080 ha         1 W02       0.144000
     40 HM63        -3.1970    -1.3780    -1.4370 hc         1 W02       0.049367
     41 HM62        -2.7730    -0.1780    -0.2080 hc         1 W02       0.049367
     42 HM61        -2.3030    -1.8740     0.0020 hc         1 W02       0.049367
     43 HM43        -2.0620     0.8820    -8.0110 hc         1 W02       0.060367
     44 HM42        -0.9190     2.2270    -7.8360 hc         1 W02       0.060367
     45 HM41        -0.5240     0.8600    -8.8920 hc         1 W02       0.060367
@<TRIPOS>BOND
     1     1     2 1   
     2     1     6 1   
     3     2     3 2   
     4     3     4 1   
     5     3     5 1   
     6     4    25 1   
     7     4    26 1   
     8     4    27 1   
     9     5     6 2   
    10     5    28 1   
    11     6     7 1   
    12     7     8 1   
    13     7    29 1   
    14     7    30 1   
    15     8     9 1   
    16     8    31 1   
    17     8    32 1   
    18     9    10 1   
    19     9    33 1   
    20     9    34 1   
    21    10    11 1   
    22    11    12 ar  
    23    11    17 ar  
    24    12    13 1   
    25    12    14 ar  
    26    13    35 1   
    27    13    36 1   
    28    13    37 1   
    29    14    15 ar  
    30    14    38 1   
    31    15    16 ar  
    32    15    19 1   
    33    16    17 ar  
    34    16    39 1   
    35    17    18 1   
    36    18    40 1   
    37    18    41 1   
    38    18    42 1   
    39    19    20 1   
    40    19    21 1   
    41    20    24 2   
    42    21    22 2   
    43    22    23 1   
    44    22    24 1   
    45    23    43 1   
    46    23    44 1   
    47    23    45 1   
@<TRIPOS>SUBSTRUCTURE
     1 W02         1 TEMP              0 ****  ****    0 ROOT
