@<TRIPOS>MOLECULE
W03
   46    48     1     0     0
SMALL
No Charge or Current Charge


@<TRIPOS>ATOM
      1 O1          -1.1610    -0.1160    -6.0130 os         1 W03      -0.076700
      2 N2          -0.9260     0.3360    -7.3660 nc         1 W03      -0.364300
      3 C3           0.3800     0.2170    -7.5270 cd         1 W03       0.279300
      4 CM3          1.0330     0.5930    -8.8260 c3         1 W03      -0.133400
      5 C4           1.0200    -0.2800    -6.3800 cd         1 W03      -0.248000
      6 C5           0.0430    -0.4750    -5.4580 cc         1 W03       0.184300
      7 C1C          0.0950    -0.9880    -4.0460 c3         1 W03      -0.116700
      8 C2C         -0.0740     0.1310    -2.9940 c3         1 W03      -0.079400
      9 C3C         -0.0130    -0.3890    -1.5460 c3         1 W03       0.164600
     10 O1B         -0.1800     0.7370    -0.6730 os         1 W03      -0.367100
     11 C1B         -0.1630     0.5320     0.6870 ca         1 W03       0.101100
     12 C2B          1.0560     0.6070     1.3920 ca         1 W03      -0.088800
     13 CM2          2.3630     0.9200     0.6700 c3         1 W03      -0.040300
     14 C3B          1.0640     0.3870     2.7820 ca         1 W03      -0.086500
     15 C4B         -0.1270     0.0970     3.4830 ca         1 W03      -0.110500
     16 C5B         -1.3410     0.0420     2.7610 ca         1 W03      -0.086500
     17 C6B         -1.3670     0.2600     1.3700 ca         1 W03      -0.088800
     18 CM6         -2.6960     0.1970     0.6220 c3         1 W03      -0.040300
     19 C2A         -0.0850    -0.1240     4.9400 cc         1 W03       0.299500
     20 C1A         -1.1750    -0.4690     5.6930 cd         1 W03       0.102900
     21 N3A          1.0210    -0.0260     5.7330 nc         1 W03      -0.683000
     22 C4A          0.5380    -0.3180     6.9330 cd         1 W03       0.449300
     23 CM4          1.3680    -0.3500     8.1810 c3         1 W03      -0.119400
     24 O5A         -0.8010    -0.6010     6.9950 os         1 W03      -0.260000
     25 HM33         2.1170     0.4340    -8.7820 hc         1 W03       0.055700
     26 HM32         0.6380    -0.0090    -9.6520 hc         1 W03       0.055700
     27 HM31         0.8580     1.6490    -9.0610 hc         1 W03       0.055700
     28 H4           2.0790    -0.4680    -6.2540 ha         1 W03       0.151000
     29 H1C2         1.0510    -1.5000    -3.8810 hc         1 W03       0.063700
     30 H1C1        -0.6910    -1.7410    -3.9060 hc         1 W03       0.063700
     31 H2C2        -1.0350     0.6350    -3.1520 hc         1 W03       0.065700
     32 H2C1         0.7130     0.8820    -3.1370 hc         1 W03       0.065700
     33 H3C2         0.9530    -0.8780    -1.3680 h1         1 W03       0.029200
     34 H3C1        -0.8100    -1.1270    -1.3840 h1         1 W03       0.029200
     35 HM23         2.7150     0.0510     0.1020 hc         1 W03       0.044533
     36 HM22         2.2400     1.7540    -0.0320 hc         1 W03       0.044533
     37 HM21         3.1570     1.2020     1.3720 hc         1 W03       0.044533
     38 H3B          2.0070     0.4400     3.3210 ha         1 W03       0.122500
     39 H5B         -2.2760    -0.1690     3.2720 ha         1 W03       0.122500
     40 HM63        -2.7840    -0.7390     0.0570 hc         1 W03       0.044533
     41 HM62        -3.5510     0.2510     1.3070 hc         1 W03       0.044533
     42 HM61        -2.7950     1.0280    -0.0860 hc         1 W03       0.044533
     43 H1A         -2.2110    -0.6450     5.4410 h4         1 W03       0.066100
     44 HM43         0.7590    -0.6140     9.0520 hc         1 W03       0.065367
     45 HM42         2.1730    -1.0880     8.0940 hc         1 W03       0.065367
     46 HM41         1.8220     0.6290     8.3710 hc         1 W03       0.065367
@<TRIPOS>BOND
     1     1     2 1   
     2     1     6 1   
     3     2     3 2   
     4     3     4 1   
     5     3     5 1   
     6     4    25 1   
     7     4    26 1   
     8     4    27 1   
     9     5     6 2   
    10     5    28 1   
    11     6     7 1   
    12     7     8 1   
    13     7    29 1   
    14     7    30 1   
    15     8     9 1   
    16     8    31 1   
    17     8    32 1   
    18     9    10 1   
    19     9    33 1   
    20     9    34 1   
    21    10    11 1   
    22    11    12 ar  
    23    11    17 ar  
    24    12    13 1   
    25    12    14 ar  
    26    13    35 1   
    27    13    36 1   
    28    13    37 1   
    29    14    15 ar  
    30    14    38 1   
    31    15    16 ar  
    32    15    19 1   
    33    16    17 ar  
    34    16    39 1   
    35    17    18 1   
    36    18    40 1   
    37    18    41 1   
    38    18    42 1   
    39    19    20 2   
    40    19    21 1   
    41    20    24 1   
    42    20    43 1   
    43    21    22 2   
    44    22    23 1   
    45    22    24 1   
    46    23    44 1   
    47    23    45 1   
    48    23    46 1   
@<TRIPOS>SUBSTRUCTURE
     1 W03         1 TEMP              0 ****  ****    0 ROOT
