@<TRIPOS>MOLECULE
W03
   46    48     1     0     0
SMALL
bcc


@<TRIPOS>ATOM
      1 O1          -1.0200    -0.0340    -5.7960 os         1 W03      -0.121100
      2 N2          -0.8880     0.2940    -7.1170 nc         1 W03      -0.364300
      3 C3           0.3520     0.0500    -7.4320 cd         1 W03       0.344600
      4 CM3          0.8590     0.2890    -8.8090 c3         1 W03      -0.133400
      5 C4           1.0680    -0.4480    -6.3110 cd         1 W03      -0.396600
      6 C5           0.1480    -0.4760    -5.3190 cc         1 W03       0.294000
      7 C1C          0.2100    -0.8700    -3.8900 c3         1 W03      -0.116700
      8 C2C         -0.0120     0.3060    -2.9360 c3         1 W03      -0.079400
      9 C3C          0.0800    -0.1570    -1.4980 c3         1 W03       0.141400
     10 O1B         -0.1470     0.9630    -0.6480 os         1 W03      -0.343900
     11 C1B         -0.1620     0.6680     0.6860 ca         1 W03       0.101100
     12 C2B          1.0230     0.7560     1.4170 ca         1 W03      -0.088800
     13 CM2          2.3040     1.1870     0.7640 c3         1 W03      -0.040300
     14 C3B          0.9830     0.4700     2.7770 ca         1 W03      -0.104500
     15 C4B         -0.2020     0.1050     3.4090 ca         1 W03      -0.110500
     16 C5B         -1.3710     0.0410     2.6520 ca         1 W03      -0.104500
     17 C6B         -1.3710     0.3190     1.2920 ca         1 W03      -0.088800
     18 CM6         -2.6440     0.2740     0.4980 c3         1 W03      -0.040300
     19 C2A         -0.2110    -0.1930     4.8390 cc         1 W03       0.299500
     20 C1A         -1.2480    -0.4820     5.6590 cd         1 W03       0.147300
     21 N3A          0.9490    -0.2170     5.5930 nc         1 W03      -0.683000
     22 C4A          0.5780    -0.5110     6.7900 cd         1 W03       0.493700
     23 CM4          1.4140    -0.6750     8.0000 c3         1 W03      -0.119400
     24 O5A         -0.7470    -0.6850     6.9020 os         1 W03      -0.348800
     25 HM33         1.6970     0.9860    -8.7930 hc         1 W03       0.055700
     26 HM32         1.2160    -0.6400    -9.2530 hc         1 W03       0.055700
     27 HM31         0.0800     0.7000    -9.4490 hc         1 W03       0.055700
     28 H4           2.1040    -0.7360    -6.2610 ha         1 W03       0.169000
     29 H1C2         1.1890    -1.3180    -3.7100 hc         1 W03       0.063700
     30 H1C1        -0.5330    -1.6490    -3.6960 hc         1 W03       0.063700
     31 H2C2        -0.9940     0.7510    -3.1120 hc         1 W03       0.065700
     32 H2C1         0.7380     1.0790    -3.1240 hc         1 W03       0.065700
     33 H3C2         1.0660    -0.5930    -1.3000 h1         1 W03       0.029200
     34 H3C1        -0.6640    -0.9400    -1.3070 h1         1 W03       0.029200
     35 HM23         2.6070     0.5160    -0.0410 hc         1 W03       0.044533
     36 HM22         2.2150     2.1830     0.3290 hc         1 W03       0.044533
     37 HM21         3.1150     1.2120     1.4900 hc         1 W03       0.044533
     38 H3B          1.8950     0.5350     3.3560 ha         1 W03       0.140500
     39 H5B         -2.3090    -0.2340     3.1220 ha         1 W03       0.140500
     40 HM63        -2.6160    -0.4890    -0.2820 hc         1 W03       0.044533
     41 HM62        -3.4940     0.0510     1.1410 hc         1 W03       0.044533
     42 HM61        -2.8400     1.2280     0.0050 hc         1 W03       0.044533
     43 H1A         -2.3150    -0.5690     5.5340 h4         1 W03       0.066100
     44 HM43         1.1070     0.0130     8.7880 hc         1 W03       0.065367
     45 HM42         1.3390    -1.6880     8.3960 hc         1 W03       0.065367
     46 HM41         2.4530    -0.4770     7.7520 hc         1 W03       0.065367
@<TRIPOS>BOND
     1     1     2 1   
     2     1     6 1   
     3     2     3 2   
     4     3     4 1   
     5     3     5 1   
     6     4    25 1   
     7     4    26 1   
     8     4    27 1   
     9     5     6 2   
    10     5    28 1   
    11     6     7 1   
    12     7     8 1   
    13     7    29 1   
    14     7    30 1   
    15     8     9 1   
    16     8    31 1   
    17     8    32 1   
    18     9    10 1   
    19     9    33 1   
    20     9    34 1   
    21    10    11 1   
    22    11    12 ar  
    23    11    17 ar  
    24    12    13 1   
    25    12    14 ar  
    26    13    35 1   
    27    13    36 1   
    28    13    37 1   
    29    14    15 ar  
    30    14    38 1   
    31    15    16 ar  
    32    15    19 1   
    33    16    17 ar  
    34    16    39 1   
    35    17    18 1   
    36    18    40 1   
    37    18    41 1   
    38    18    42 1   
    39    19    20 2   
    40    19    21 1   
    41    20    24 1   
    42    20    43 1   
    43    21    22 2   
    44    22    23 1   
    45    22    24 1   
    46    23    44 1   
    47    23    45 1   
    48    23    46 1   
@<TRIPOS>SUBSTRUCTURE
     1 W03         1 TEMP              0 ****  ****    0 ROOT
