@<TRIPOS>MOLECULE
W04
   26    26     1     0     0
SMALL
No Charge or Current Charge


@<TRIPOS>ATOM
      1 N1          -4.3140    14.3330     1.4970 ns         1 W04      -0.332900
      2 C4          -2.6790    14.3150    -0.3940 ca         1 W04      -0.179000
      3 C5          -1.3970    14.6920    -0.8270 ca         1 W04      -0.014300
      4 C6          -0.9180    14.3710    -2.2330 c3         1 W04      -0.054800
      5 C7          -0.5740    15.3720     0.0850 ca         1 W04      -0.200000
      6 C8          -1.0560    15.6530     1.3740 ca         1 W04       0.371900
      7 O           -5.2590    12.8010     0.0750 o          1 W04      -0.549100
      8 C2          -5.3250    13.4910     1.0860 c          1 W04       0.608100
      9 C1          -6.5700    13.4750     2.0270 c3         1 W04       0.083800
     10 N           -7.6860    14.4030     1.6380 n7         1 W04      -0.840400
     11 C           -7.3630    15.8460     1.6510 c3         1 W04       0.141100
     12 C3          -3.0760    14.6330     0.9200 ca         1 W04       0.483900
     13 N2          -2.2900    15.2930     1.7910 nb         1 W04      -0.742000
     14 H1          -4.4840    14.8190     2.3660 hn         1 W04       0.162000
     15 H2          -3.3460    13.7970    -1.0720 ha         1 W04       0.155000
     16 H3          -1.7400    14.4290    -2.9570 hc         1 W04       0.049367
     17 H4          -0.1410    15.0710    -2.5610 hc         1 W04       0.049367
     18 H5          -0.4990    13.3590    -2.2810 hc         1 W04       0.049367
     19 H6           0.4280    15.6860    -0.1940 ha         1 W04       0.124000
     20 H7          -0.4340    16.1830     2.0950 h4         1 W04       0.017100
     21 H8          -6.9350    12.4400     2.0450 h1         1 W04       0.047200
     22 H9          -6.2220    13.7050     3.0440 h1         1 W04       0.047200
     23 H10         -8.4750    14.2500     2.2840 hn         1 W04       0.417000
     24 H12         -8.2420    16.4400     1.3670 h1         1 W04       0.035367
     25 H13         -7.0440    16.1680     2.6520 h1         1 W04       0.035367
     26 H14         -6.5580    16.0780     0.9410 h1         1 W04       0.035367
@<TRIPOS>BOND
     1     1     8 1   
     2     1    12 1   
     3     1    14 1   
     4     2     3 ar  
     5     2    12 ar  
     6     2    15 1   
     7     3     4 1   
     8     3     5 ar  
     9     4    16 1   
    10     4    17 1   
    11     4    18 1   
    12     5     6 ar  
    13     5    19 1   
    14     6    13 ar  
    15     6    20 1   
    16     7     8 2   
    17     8     9 1   
    18     9    10 1   
    19     9    21 1   
    20     9    22 1   
    21    10    11 1   
    22    10    23 1   
    23    11    24 1   
    24    11    25 1   
    25    11    26 1   
    26    12    13 ar  
@<TRIPOS>SUBSTRUCTURE
     1 W04         1 TEMP              0 ****  ****    0 ROOT
