@<TRIPOS>MOLECULE
W04
   26    26     1     0     0
SMALL
abcg2


@<TRIPOS>ATOM
      1 N1          -4.0470    14.5390     1.6980 ns         1 W04      -0.332900
      2 C4          -2.5950    14.5330    -0.2940 ca         1 W04      -0.179000
      3 C5          -1.3100    14.7090    -0.7890 ca         1 W04      -0.014300
      4 C6          -1.0280    14.5850    -2.2550 c3         1 W04      -0.054800
      5 C7          -0.2900    15.0140     0.1120 ca         1 W04      -0.200000
      6 C8          -0.6100    15.1330     1.4500 ca         1 W04       0.371900
      7 O           -5.4280    13.8580     0.0200 o          1 W04      -0.549100
      8 C2          -5.2440    14.1380     1.1860 c          1 W04       0.608100
      9 C1          -6.3310    14.0550     2.2490 c3         1 W04       0.083800
     10 N           -7.6460    13.9770     1.6770 n7         1 W04      -0.840400
     11 C           -8.1510    15.2540     1.2150 c3         1 W04       0.141100
     12 C3          -2.8080    14.6740     1.0790 ca         1 W04       0.483900
     13 N2          -1.8360    14.9700     1.9320 nb         1 W04      -0.742000
     14 H1          -4.0130    14.7300     2.6900 hn         1 W04       0.162000
     15 H2          -3.4080    14.2990    -0.9620 ha         1 W04       0.155000
     16 H3          -0.6850    15.5380    -2.6610 hc         1 W04       0.049367
     17 H4          -0.2400    13.8550    -2.4410 hc         1 W04       0.049367
     18 H5          -1.9130    14.2820    -2.8120 hc         1 W04       0.049367
     19 H6           0.7290    15.1590    -0.2210 ha         1 W04       0.124000
     20 H7           0.1590    15.3740     2.1760 h4         1 W04       0.017100
     21 H8          -6.1400    13.1450     2.8280 h1         1 W04       0.047200
     22 H9          -6.2020    14.8940     2.9520 h1         1 W04       0.047200
     23 H10         -8.2750    13.5970     2.3690 hn         1 W04       0.417000
     24 H12         -9.1850    15.1410     0.8880 h1         1 W04       0.035367
     25 H13         -8.1230    16.0460     1.9760 h1         1 W04       0.035367
     26 H14         -7.5770    15.6010     0.3550 h1         1 W04       0.035367
@<TRIPOS>BOND
     1     1     8 1   
     2     1    12 1   
     3     1    14 1   
     4     2     3 ar  
     5     2    12 ar  
     6     2    15 1   
     7     3     4 1   
     8     3     5 ar  
     9     4    16 1   
    10     4    17 1   
    11     4    18 1   
    12     5     6 ar  
    13     5    19 1   
    14     6    13 ar  
    15     6    20 1   
    16     7     8 2   
    17     8     9 1   
    18     9    10 1   
    19     9    21 1   
    20     9    22 1   
    21    10    11 1   
    22    10    23 1   
    23    11    24 1   
    24    11    25 1   
    25    11    26 1   
    26    12    13 ar  
@<TRIPOS>SUBSTRUCTURE
     1 W04         1 TEMP              0 ****  ****    0 ROOT
