@<TRIPOS>MOLECULE
W05
   41    40     1     0     0
SMALL
No Charge or Current Charge


@<TRIPOS>ATOM
      1 C1           7.4020     8.1180     0.1590 c          1 W05       0.721000
      2 C2           5.9090     8.2970     0.6760 c3         1 W05       0.021500
      3 C3           5.2660     6.9370     1.0650 c3         1 W05      -0.086400
      4 C4           5.0480     5.9420    -0.1040 c3         1 W05      -0.064400
      5 C7           4.3820     4.6210     0.3520 c3         1 W05      -0.154400
      6 C10          4.1780     3.6550    -0.8210 c          1 W05       0.600100
      7 N11          5.0070     2.5580    -0.8240 ns         1 W05      -0.497900
      8 C12          5.0200     1.4990    -1.8610 c3         1 W05       0.032700
      9 C13          5.8140     0.2600    -1.3580 c          1 W05       0.578100
     10 N14          4.9660     9.0920    -0.1920 n8         1 W05      -1.000200
     11 O15          3.3150     3.8230    -1.6720 o          1 W05      -0.620100
     12 C16          5.5870     2.0240    -3.2070 c3         1 W05       0.071600
     13 S17          7.2570     2.8360    -3.0820 sh         1 W05      -0.482800
     14 O18          6.5130     0.2800    -0.3510 o          1 W05      -0.649100
     15 O19          8.3110     8.2240     0.9730 o          1 W05      -0.735500
     16 O20          7.6010     8.0010    -1.0460 o          1 W05      -0.735500
     17 N29          5.6680    -0.8810    -2.1220 ns         1 W05      -0.472900
     18 C30          6.3550    -2.1730    -1.8780 c3         1 W05      -0.044300
     19 C31          5.5910    -3.3470    -2.5700 c          1 W05       0.715000
     20 C32          7.8320    -2.1180    -2.3280 c3         1 W05      -0.080100
     21 O42          5.0720    -3.1430    -3.6600 o          1 W05      -0.726500
     22 O43          5.4410    -4.3860    -1.9420 o          1 W05      -0.726500
     23 H2           5.9930     8.8640     1.6130 h1         1 W05       0.038700
     24 H3C1         4.3020     7.1270     1.5540 hc         1 W05       0.017700
     25 H3C2         5.9010     6.4580     1.8210 hc         1 W05       0.017700
     26 H4C1         4.4230     6.4090    -0.8750 hc         1 W05       0.062700
     27 H4C2         6.0130     5.7090    -0.5730 hc         1 W05       0.062700
     28 H7C1         5.0190     4.1560     1.1140 hc         1 W05       0.047200
     29 H7C2         3.4030     4.8580     0.7840 hc         1 W05       0.047200
     30 H11          5.6810     2.4900    -0.0690 hn         1 W05       0.338500
     31 H12          3.9880     1.1640    -2.0270 h1         1 W05       0.083700
     32 H141         4.9650     8.6790    -1.1320 hn         1 W05       0.380000
     33 H142         4.0040     8.9550     0.1410 hn         1 W05       0.380000
     34 H161         5.6510     1.2010    -3.9310 h1         1 W05       0.082700
     35 H162         4.8880     2.7630    -3.6200 h1         1 W05       0.082700
     36 H29          5.0450    -0.8280    -2.9220 hn         1 W05       0.345500
     37 H30          6.3320    -2.3690    -0.7980 h1         1 W05       0.049700
     38 H321         8.3750    -1.3300    -1.7930 hc         1 W05       0.025033
     39 H322         8.3300    -3.0730    -2.1240 hc         1 W05       0.025033
     40 H323         7.9030    -1.9170    -3.4040 hc         1 W05       0.025033
     41 HS1          7.9060     1.7720    -2.5450 hs         1 W05       0.224800
@<TRIPOS>BOND
     1     1     2 1   
     2     1    15 1   
     3     1    16 1   
     4     2     3 1   
     5     2    10 1   
     6     2    23 1   
     7     3     4 1   
     8     3    24 1   
     9     3    25 1   
    10     4     5 1   
    11     4    26 1   
    12     4    27 1   
    13     5     6 1   
    14     5    28 1   
    15     5    29 1   
    16     6     7 1   
    17     6    11 2   
    18     7     8 1   
    19     7    30 1   
    20     8     9 1   
    21     8    12 1   
    22     8    31 1   
    23     9    14 2   
    24     9    17 1   
    25    10    32 1   
    26    10    33 1   
    27    12    13 1   
    28    12    34 1   
    29    12    35 1   
    30    13    41 1   
    31    17    18 1   
    32    17    36 1   
    33    18    19 1   
    34    18    20 1   
    35    18    37 1   
    36    19    21 1   
    37    19    22 1   
    38    20    38 1   
    39    20    39 1   
    40    20    40 1   
@<TRIPOS>SUBSTRUCTURE
     1 W05         1 TEMP              0 ****  ****    0 ROOT
