@<TRIPOS>MOLECULE
W05
   41    40     1     0     0
SMALL
abcg2


@<TRIPOS>ATOM
      1 C1           5.9010     9.2150    -0.2330 c          1 W05       0.721000
      2 C2           5.1820     8.5080     0.9360 c3         1 W05       0.021500
      3 C3           5.6490     7.0450     1.0120 c3         1 W05      -0.086400
      4 C4           5.3330     6.2130    -0.2260 c3         1 W05      -0.064400
      5 C7           5.6500     4.7440     0.0000 c3         1 W05      -0.154400
      6 C10          5.3650     3.8570    -1.1940 c          1 W05       0.600100
      7 N11          5.8250     2.5980    -1.0730 ns         1 W05      -0.497900
      8 C12          5.6350     1.5880    -2.0740 c3         1 W05       0.032700
      9 C13          5.7610     0.2130    -1.4100 c          1 W05       0.578100
     10 N14          3.7390     8.6670     0.8400 n8         1 W05      -1.000200
     11 O15          4.7600     4.2430    -2.1850 o          1 W05      -0.620100
     12 C16          6.6200     1.7380    -3.2380 c3         1 W05       0.071600
     13 S17          8.3550     1.4980    -2.7570 sh         1 W05      -0.482800
     14 O18          6.0430     0.1000    -0.2240 o          1 W05      -0.649100
     15 O19          7.1150     9.4500    -0.0660 o          1 W05      -0.735500
     16 O20          5.2320     9.4600    -1.2580 o          1 W05      -0.735500
     17 N29          5.5620    -0.8150    -2.2320 ns         1 W05      -0.472900
     18 C30          5.6200    -2.2090    -1.8490 c3         1 W05      -0.044300
     19 C31          4.9680    -3.0560    -2.9710 c          1 W05       0.715000
     20 C32          7.0510    -2.6710    -1.5860 c3         1 W05      -0.080100
     21 O42          4.5970    -2.4490    -3.9970 o          1 W05      -0.726500
     22 O43          4.8860    -4.2740    -2.7450 o          1 W05      -0.726500
     23 H2           5.5170     8.9870     1.8640 h1         1 W05       0.038700
     24 H3C1         5.1780     6.5790     1.8860 hc         1 W05       0.017700
     25 H3C2         6.7250     7.0230     1.2050 hc         1 W05       0.017700
     26 H4C1         4.2770     6.3240    -0.4850 hc         1 W05       0.062700
     27 H4C2         5.9020     6.5830    -1.0830 hc         1 W05       0.062700
     28 H7C1         6.6990     4.6220     0.2870 hc         1 W05       0.047200
     29 H7C2         5.0710     4.3640     0.8490 hc         1 W05       0.047200
     30 H11          6.3010     2.3210    -0.2280 hn         1 W05       0.338500
     31 H12          4.6250     1.6740    -2.4900 h1         1 W05       0.083700
     32 H141         3.4580     8.5270    -0.1220 hn         1 W05       0.380000
     33 H142         3.2730     7.9560     1.3900 hn         1 W05       0.380000
     34 H161         6.3730     1.0690    -4.0600 h1         1 W05       0.082700
     35 H162         6.5520     2.7520    -3.6300 h1         1 W05       0.082700
     36 H29          5.2340    -0.6710    -3.1790 hn         1 W05       0.345500
     37 H30          5.0340    -2.3540    -0.9350 h1         1 W05       0.049700
     38 H321         7.5130    -2.0830    -0.7950 hc         1 W05       0.025033
     39 H322         7.0600    -3.7160    -1.2790 hc         1 W05       0.025033
     40 H323         7.6640    -2.5740    -2.4850 hc         1 W05       0.025033
     41 HS1          8.3510     0.1590    -2.7610 hs         1 W05       0.224800
@<TRIPOS>BOND
     1     1     2 1   
     2     1    15 1   
     3     1    16 1   
     4     2     3 1   
     5     2    10 1   
     6     2    23 1   
     7     3     4 1   
     8     3    24 1   
     9     3    25 1   
    10     4     5 1   
    11     4    26 1   
    12     4    27 1   
    13     5     6 1   
    14     5    28 1   
    15     5    29 1   
    16     6     7 1   
    17     6    11 2   
    18     7     8 1   
    19     7    30 1   
    20     8     9 1   
    21     8    12 1   
    22     8    31 1   
    23     9    14 2   
    24     9    17 1   
    25    10    32 1   
    26    10    33 1   
    27    12    13 1   
    28    12    34 1   
    29    12    35 1   
    30    13    41 1   
    31    17    18 1   
    32    17    36 1   
    33    18    19 1   
    34    18    20 1   
    35    18    37 1   
    36    19    21 1   
    37    19    22 1   
    38    20    38 1   
    39    20    39 1   
    40    20    40 1   
@<TRIPOS>SUBSTRUCTURE
     1 W05         1 TEMP              0 ****  ****    0 ROOT
