@<TRIPOS>MOLECULE
W06
   43    44     1     0     0
SMALL
abcg2


@<TRIPOS>ATOM
      1 FAW         -6.0830     0.3360    -0.5640 f          1 W06      -0.088667
      2 CAV         -5.0380     0.4190     0.2490 c3         1 W06       0.275000
      3 FAX         -5.0250     1.6260     0.7980 f          1 W06      -0.088667
      4 FAY         -5.1760    -0.4890     1.2020 f          1 W06      -0.088667
      5 CAU         -3.7460     0.1710    -0.5750 c3         1 W06       0.080000
      6 FAZ         -3.7770    -1.1050    -0.9920 f          1 W06      -0.064500
      7 FBA         -3.7910     0.9780    -1.6440 f          1 W06      -0.064500
      8 CAT         -2.4180     0.4380     0.1910 c3         1 W06       0.104000
      9 FBB         -2.2750     1.7680     0.3070 f          1 W06      -0.067500
     10 FBC         -2.5150    -0.0890     1.4210 f          1 W06      -0.067500
     11 CAS         -1.1530    -0.1560    -0.4950 c3         1 W06       0.108000
     12 FBD         -1.1430    -1.4830    -0.2660 f          1 W06      -0.066000
     13 FBE         -1.2400     0.0430    -1.8200 f          1 W06      -0.066000
     14 CAR          0.2030     0.4140    -0.0020 c3         1 W06       0.060000
     15 FBF          0.3610     1.6510    -0.4970 f          1 W06      -0.084000
     16 FBG          0.1610     0.5050     1.3450 f          1 W06      -0.084000
     17 CAP          1.3750    -0.4680    -0.4890 c          1 W06       0.576100
     18 OAQ          1.6730    -0.4000    -1.6670 o          1 W06      -0.590100
     19 N            1.9220    -1.2370     0.4390 ns         1 W06      -0.426900
     20 CA           3.0270    -2.1400     0.2060 c3         1 W06      -0.042300
     21 C            2.8870    -3.3730     1.1300 c          1 W06       0.718000
     22 O            2.0620    -3.2880     2.0600 o          1 W06      -0.714000
     23 OXT          3.6530    -4.3170     0.8760 o          1 W06      -0.714000
     24 CB           4.3830    -1.4550     0.4780 c3         1 W06      -0.011200
     25 CG           4.5420    -0.1520    -0.2280 cc         1 W06      -0.114400
     26 CD2          4.0690     1.1260     0.2160 ca         1 W06      -0.093800
     27 CE3          3.4320     1.5720     1.3800 ca         1 W06      -0.054000
     28 CZ3          3.1000     2.9070     1.4940 ca         1 W06      -0.155000
     29 CH2          3.3920     3.8150     0.4620 ca         1 W06      -0.100000
     30 CZ2          4.0250     3.4070    -0.6960 ca         1 W06      -0.137000
     31 CE2          4.3550     2.0570    -0.8070 ca         1 W06      -0.045200
     32 NE1          4.9740     1.3740    -1.8120 na         1 W06      -0.227700
     33 CD1          5.0860     0.0570    -1.4630 cd         1 W06      -0.161100
     34 H1           1.5300    -1.2950     1.3690 hn         1 W06       0.355500
     35 H2           3.0010    -2.4580    -0.8390 h1         1 W06       0.064700
     36 H4           4.4920    -1.3050     1.5570 hc         1 W06       0.056200
     37 H5           5.1680    -2.1520     0.1820 hc         1 W06       0.056200
     38 H6           3.2070     0.8810     2.1840 ha         1 W06       0.122000
     39 H7           2.6080     3.2650     2.3890 ha         1 W06       0.102000
     40 H8           3.1190     4.8560     0.5790 ha         1 W06       0.095000
     41 H9           4.2510     4.1100    -1.4880 ha         1 W06       0.099000
     42 H10          5.3170     1.7740    -2.6690 hn         1 W06       0.337000
     43 H11          5.5460    -0.6490    -2.1360 h4         1 W06       0.208000
@<TRIPOS>BOND
     1     1     2 1   
     2     2     3 1   
     3     2     4 1   
     4     2     5 1   
     5     5     6 1   
     6     5     7 1   
     7     5     8 1   
     8     8     9 1   
     9     8    10 1   
    10     8    11 1   
    11    11    12 1   
    12    11    13 1   
    13    11    14 1   
    14    14    15 1   
    15    14    16 1   
    16    14    17 1   
    17    17    18 2   
    18    17    19 1   
    19    19    20 1   
    20    19    34 1   
    21    20    21 1   
    22    20    24 1   
    23    20    35 1   
    24    21    22 1   
    25    21    23 1   
    26    24    25 1   
    27    24    36 1   
    28    24    37 1   
    29    25    26 1   
    30    25    33 2   
    31    26    27 ar  
    32    26    31 ar  
    33    27    28 ar  
    34    27    38 1   
    35    28    29 ar  
    36    28    39 1   
    37    29    30 ar  
    38    29    40 1   
    39    30    31 ar  
    40    30    41 1   
    41    31    32 1   
    42    32    33 1   
    43    32    42 1   
    44    33    43 1   
@<TRIPOS>SUBSTRUCTURE
     1 W06         1 TEMP              0 ****  ****    0 ROOT
