@<TRIPOS>MOLECULE
W06
   43    44     1     0     0
SMALL
No Charge or Current Charge


@<TRIPOS>ATOM
      1 FAW         -6.3120     0.1930    -0.3100 f          1 W06      -0.088667
      2 CAV         -5.1680     0.6730     0.2340 c3         1 W06       0.275000
      3 FAX         -5.1610     2.0140     0.0510 f          1 W06      -0.088667
      4 FAY         -5.2290     0.4500     1.5680 f          1 W06      -0.088667
      5 CAU         -3.9130    -0.0060    -0.4090 c3         1 W06       0.080000
      6 FAZ         -4.0050    -1.3440    -0.2110 f          1 W06      -0.064500
      7 FBA         -3.9830     0.1700    -1.7520 f          1 W06      -0.064500
      8 CAT         -2.5120     0.5060     0.1080 c3         1 W06       0.104000
      9 FBB         -2.4100     1.8300    -0.1560 f          1 W06      -0.067500
     10 FBC         -2.4900     0.4160     1.4600 f          1 W06      -0.067500
     11 CAS         -1.2390    -0.2330    -0.4700 c3         1 W06       0.108000
     12 FBD         -1.2780    -1.5370    -0.1020 f          1 W06      -0.066000
     13 FBE         -1.3040    -0.2500    -1.8230 f          1 W06      -0.066000
     14 CAR          0.1580     0.3430    -0.0520 c3         1 W06       0.060000
     15 FBF          0.2960     1.6050    -0.5310 f          1 W06      -0.084000
     16 FBG          0.2230     0.4610     1.2990 f          1 W06      -0.084000
     17 CAP          1.3200    -0.5450    -0.5840 c          1 W06       0.576100
     18 OAQ          1.6820    -0.5290    -1.7560 o          1 W06      -0.590100
     19 N            1.9420    -1.3460     0.3590 ns         1 W06      -0.426900
     20 CA           3.1540    -2.1700     0.1250 c3         1 W06      -0.042300
     21 C            3.0420    -3.5220     0.8860 c          1 W06       0.718000
     22 O            2.6330    -3.5060     2.0400 o          1 W06      -0.714000
     23 OXT          3.2690    -4.5520     0.2680 o          1 W06      -0.714000
     24 CB           4.4550    -1.4230     0.5160 c3         1 W06      -0.011200
     25 CG           4.6370    -0.0970    -0.1800 cc         1 W06      -0.114400
     26 CD2          4.1160     1.1760     0.2370 ca         1 W06      -0.093800
     27 CE3          3.3690     1.5260     1.3720 ca         1 W06      -0.054000
     28 CZ3          2.9730     2.8730     1.5140 ca         1 W06      -0.155000
     29 CH2          3.3320     3.8300     0.5360 ca         1 W06      -0.100000
     30 CZ2          4.0930     3.4460    -0.5880 ca         1 W06      -0.137000
     31 CE2          4.4700     2.1010    -0.7040 ca         1 W06      -0.045200
     32 NE1          5.2100     1.5140    -1.7130 na         1 W06      -0.227700
     33 CD1          5.3090     0.1410    -1.3760 cd         1 W06      -0.161100
     34 H1           1.5580    -1.3250     1.2980 hn         1 W06       0.355500
     35 H2           3.2060    -2.4110    -0.9440 h1         1 W06       0.064700
     36 H4           4.4690    -1.2680     1.6020 hc         1 W06       0.056200
     37 H5           5.3120    -2.0700     0.2920 hc         1 W06       0.056200
     38 H6           3.0990     0.7840     2.1190 ha         1 W06       0.122000
     39 H7           2.3880     3.1760     2.3800 ha         1 W06       0.102000
     40 H8           3.0230     4.8660     0.6530 ha         1 W06       0.095000
     41 H9           4.3770     4.1750    -1.3440 ha         1 W06       0.099000
     42 H10          5.5970     1.9720    -2.5330 hn         1 W06       0.337000
     43 H11          5.8330    -0.5660    -2.0130 h4         1 W06       0.208000
@<TRIPOS>BOND
     1     1     2 1   
     2     2     3 1   
     3     2     4 1   
     4     2     5 1   
     5     5     6 1   
     6     5     7 1   
     7     5     8 1   
     8     8     9 1   
     9     8    10 1   
    10     8    11 1   
    11    11    12 1   
    12    11    13 1   
    13    11    14 1   
    14    14    15 1   
    15    14    16 1   
    16    14    17 1   
    17    17    18 2   
    18    17    19 1   
    19    19    20 1   
    20    19    34 1   
    21    20    21 1   
    22    20    24 1   
    23    20    35 1   
    24    21    22 1   
    25    21    23 1   
    26    24    25 1   
    27    24    36 1   
    28    24    37 1   
    29    25    26 1   
    30    25    33 2   
    31    26    27 ar  
    32    26    31 ar  
    33    27    28 ar  
    34    27    38 1   
    35    28    29 ar  
    36    28    39 1   
    37    29    30 ar  
    38    29    40 1   
    39    30    31 ar  
    40    30    41 1   
    41    31    32 1   
    42    32    33 1   
    43    32    42 1   
    44    33    43 1   
@<TRIPOS>SUBSTRUCTURE
     1 W06         1 TEMP              0 ****  ****    0 ROOT
