@<TRIPOS>MOLECULE
W07
   63    64     1     0     0
SMALL
abcg2


@<TRIPOS>ATOM
      1 C4          -3.8900    -0.4330    -0.4180 ca         1 W07       0.137100
      2 C3          -5.1150     1.4830     0.2700 c3         1 W07       0.128600
      3 C2          -6.2830     2.3160    -0.2330 c3         1 W07       0.166300
      4 C5          -3.7130    -1.4460    -1.3550 ca         1 W07      -0.172500
      5 C6          -2.6870    -2.3670    -1.2090 ca         1 W07      -0.069000
      6 C9          -3.0230    -0.3650     0.6710 ca         1 W07      -0.172500
      7 C8          -2.0010    -1.2950     0.7960 ca         1 W07      -0.069000
      8 C1          -6.4790     3.5140     0.6840 c3         1 W07       0.129600
      9 C11         -0.5080    -4.2640    -1.1200 c3         1 W07      -0.082100
     10 C13          0.6440    -2.5450     0.2340 ca         1 W07      -0.109300
     11 C16          3.0700    -1.1130     0.4250 ca         1 W07       0.140100
     12 C17          2.7310    -2.0710     1.3770 ca         1 W07      -0.173500
     13 C18          1.5380    -2.7700     1.2770 ca         1 W07      -0.069000
     14 C19          4.5690     0.5990    -0.2630 c3         1 W07       0.129600
     15 C20          5.8680     1.2170     0.2400 c3         1 W07       0.174300
     16 C21          6.4030     2.3520    -0.6640 c3         1 W07      -0.076000
     17 O01         -7.4790     4.3410     0.1430 oh         1 W07      -0.641000
     18 O02         -7.4550     1.5540    -0.3890 oh         1 W07      -0.623000
     19 O03         -4.9060     0.4260    -0.6430 os         1 W07      -0.330100
     20 C7          -1.8030    -2.3130    -0.1340 ca         1 W07      -0.107300
     21 C12         -0.9950    -4.1650     1.3040 c3         1 W07      -0.082100
     22 C14          1.0040    -1.5890    -0.7130 ca         1 W07      -0.069000
     23 C15          2.1930    -0.8770    -0.6330 ca         1 W07      -0.173500
     24 O04          4.2430    -0.4720     0.6030 os         1 W07      -0.335100
     25 O05          5.7360     1.6110     1.5880 oh         1 W07      -0.641000
     26 C22          7.7350     2.8430    -0.0890 c3         1 W07      -0.086100
     27 C23          6.6590     1.8240    -2.0790 c3         1 W07      -0.086100
     28 C24          5.4290     3.5320    -0.7370 c3         1 W07      -0.086100
     29 H1          -4.2230     2.1140     0.3460 h1         1 W07       0.034700
     30 H2          -5.3300     1.0910     1.2730 h1         1 W07       0.034700
     31 H3          -6.0340     2.6860    -1.2340 h1         1 W07       0.099700
     32 H4          -4.3800    -1.5090    -2.2060 ha         1 W07       0.120500
     33 H5          -2.5860    -3.1340    -1.9650 ha         1 W07       0.115000
     34 H6          -3.1220     0.4040     1.4260 ha         1 W07       0.120500
     35 H7          -1.3310    -1.2050     1.6430 ha         1 W07       0.115000
     36 H8          -6.7460     3.1580     1.6900 h1         1 W07       0.019200
     37 H9          -5.5210     4.0430     0.7800 h1         1 W07       0.019200
     38 H10          0.3330    -4.9360    -0.9420 hc         1 W07       0.037867
     39 H11         -1.3970    -4.8830    -1.2590 hc         1 W07       0.037867
     40 H12         -0.3140    -3.7330    -2.0530 hc         1 W07       0.037867
     41 H13          3.4050    -2.2620     2.2030 ha         1 W07       0.121000
     42 H14          1.3170    -3.5000     2.0440 ha         1 W07       0.114500
     43 H15          3.7600     1.3410    -0.2680 h1         1 W07       0.037700
     44 H16          4.6880     0.2360    -1.2880 h1         1 W07       0.037700
     45 H17          6.6290     0.4270     0.2470 h1         1 W07       0.084700
     46 H18         -7.6160     5.0750     0.7480 ho         1 W07       0.444000
     47 H19         -7.7540     1.2630     0.4800 ho         1 W07       0.436000
     48 H20         -1.0580    -3.5680     2.2150 hc         1 W07       0.037867
     49 H21         -1.9560    -4.6600     1.1630 hc         1 W07       0.037867
     50 H22         -0.2440    -4.9420     1.4610 hc         1 W07       0.037867
     51 H23          0.3390    -1.3790    -1.5420 ha         1 W07       0.114500
     52 H24          2.4140    -0.1480    -1.4000 ha         1 W07       0.121000
     53 H25          5.0670     2.3010     1.6490 ho         1 W07       0.437000
     54 H26          7.6240     3.2500     0.9150 hc         1 W07       0.037033
     55 H27          8.4690     2.0340    -0.0440 hc         1 W07       0.037033
     56 H28          8.1490     3.6290    -0.7230 hc         1 W07       0.037033
     57 H29          7.1600     2.5870    -2.6770 hc         1 W07       0.037033
     58 H30          7.3030     0.9410    -2.0650 hc         1 W07       0.037033
     59 H31          5.7400     1.5600    -2.6040 hc         1 W07       0.037033
     60 H32          5.2210     3.9670     0.2430 hc         1 W07       0.037033
     61 H33          5.8560     4.3300    -1.3470 hc         1 W07       0.037033
     62 H34          4.4750     3.2580    -1.1910 hc         1 W07       0.037033
     63 C10         -0.6660    -3.3120     0.0720 c3         1 W07       0.061600
@<TRIPOS>BOND
     1     1     4 ar  
     2     1     6 ar  
     3     1    19 1   
     4     2     3 1   
     5     2    19 1   
     6     2    29 1   
     7     2    30 1   
     8     3     8 1   
     9     3    18 1   
    10     3    31 1   
    11     4     5 ar  
    12     4    32 1   
    13     5    20 ar  
    14     5    33 1   
    15     6     7 ar  
    16     6    34 1   
    17     7    20 ar  
    18     7    35 1   
    19     8    17 1   
    20     8    36 1   
    21     8    37 1   
    22     9    38 1   
    23     9    39 1   
    24     9    40 1   
    25     9    63 1   
    26    10    13 ar  
    27    10    22 ar  
    28    10    63 1   
    29    11    12 ar  
    30    11    23 ar  
    31    11    24 1   
    32    12    13 ar  
    33    12    41 1   
    34    13    42 1   
    35    14    15 1   
    36    14    24 1   
    37    14    43 1   
    38    14    44 1   
    39    15    16 1   
    40    15    25 1   
    41    15    45 1   
    42    16    26 1   
    43    16    27 1   
    44    16    28 1   
    45    17    46 1   
    46    18    47 1   
    47    20    63 1   
    48    21    48 1   
    49    21    49 1   
    50    21    50 1   
    51    21    63 1   
    52    22    23 ar  
    53    22    51 1   
    54    23    52 1   
    55    25    53 1   
    56    26    54 1   
    57    26    55 1   
    58    26    56 1   
    59    27    57 1   
    60    27    58 1   
    61    27    59 1   
    62    28    60 1   
    63    28    61 1   
    64    28    62 1   
@<TRIPOS>SUBSTRUCTURE
     1 W07         1 TEMP              0 ****  ****    0 ROOT
