@<TRIPOS>MOLECULE
W07
   63    64     1     0     0
SMALL
No Charge or Current Charge


@<TRIPOS>ATOM
      1 C4          -3.9320    -0.5010    -0.3900 ca         1 W07       0.137100
      2 C3          -5.2140     1.4810     0.3380 c3         1 W07       0.128600
      3 C2          -6.4450     2.2850    -0.1570 c3         1 W07       0.166300
      4 C5          -3.7770    -1.5300    -1.3280 ca         1 W07      -0.172500
      5 C6          -2.7370    -2.4670    -1.2020 ca         1 W07      -0.069000
      6 C9          -3.0330    -0.4120     0.6910 ca         1 W07      -0.172500
      7 C8          -1.9920    -1.3480     0.8200 ca         1 W07      -0.069000
      8 C1          -6.6600     3.5800     0.6680 c3         1 W07       0.129600
      9 C11         -0.4600    -4.3440    -1.1380 c3         1 W07      -0.082100
     10 C13          0.6560    -2.5870     0.2430 ca         1 W07      -0.109300
     11 C16          3.0460    -1.0630     0.4620 ca         1 W07       0.140100
     12 C17          2.7270    -2.0270     1.4280 ca         1 W07      -0.173500
     13 C18          1.5480    -2.7840     1.3250 ca         1 W07      -0.069000
     14 C19          4.6340     0.6590    -0.3220 c3         1 W07       0.129600
     15 C20          5.9920     1.2420     0.1650 c3         1 W07       0.174300
     16 C21          6.5580     2.4390    -0.6910 c3         1 W07      -0.076000
     17 O01         -7.8420     4.2650     0.2200 oh         1 W07      -0.641000
     18 O02         -7.6440     1.4880    -0.0780 oh         1 W07      -0.623000
     19 O03         -4.9720     0.3880    -0.5700 os         1 W07      -0.330100
     20 C7          -1.8230    -2.3880    -0.1220 ca         1 W07      -0.107300
     21 C12         -1.0060    -4.2650     1.3090 c3         1 W07      -0.082100
     22 C14          0.9910    -1.6150    -0.7280 ca         1 W07      -0.069000
     23 C15          2.1700    -0.8580    -0.6230 ca         1 W07      -0.173500
     24 O04          4.2170    -0.3520     0.6200 os         1 W07      -0.335100
     25 O05          5.8620     1.6230     1.5470 oh         1 W07      -0.641000
     26 C22          7.9500     2.8630    -0.1400 c3         1 W07      -0.086100
     27 C23          6.7470     1.9970    -2.1690 c3         1 W07      -0.086100
     28 C24          5.6130     3.6760    -0.6570 c3         1 W07      -0.086100
     29 H1          -4.3420     2.1470     0.3710 h1         1 W07       0.034700
     30 H2          -5.4040     1.1100     1.3540 h1         1 W07       0.034700
     31 H3          -6.2540     2.5830    -1.1970 h1         1 W07       0.099700
     32 H4          -4.4700    -1.6040    -2.1630 ha         1 W07       0.120500
     33 H5          -2.6620    -3.2480    -1.9530 ha         1 W07       0.115000
     34 H6          -3.1220     0.3720     1.4380 ha         1 W07       0.120500
     35 H7          -1.3080    -1.2600     1.6610 ha         1 W07       0.115000
     36 H8          -6.7490     3.3250     1.7330 h1         1 W07       0.019200
     37 H9          -5.7800     4.2280     0.5530 h1         1 W07       0.019200
     38 H10          0.4170    -4.9840    -0.9820 hc         1 W07       0.037867
     39 H11         -1.3270    -5.0020    -1.2740 hc         1 W07       0.037867
     40 H12         -0.3010    -3.7850    -2.0670 hc         1 W07       0.037867
     41 H13          3.4010    -2.1900     2.2650 ha         1 W07       0.121000
     42 H14          1.3480    -3.5210     2.0980 ha         1 W07       0.114500
     43 H15          3.8820     1.4550    -0.3800 h1         1 W07       0.037700
     44 H16          4.7570     0.2190    -1.3190 h1         1 W07       0.037700
     45 H17          6.7200     0.4210     0.0900 h1         1 W07       0.084700
     46 H18         -7.9060     5.1010     0.7350 ho         1 W07       0.444000
     47 H19         -8.3780     2.1430    -0.0720 ho         1 W07       0.436000
     48 H20         -1.0690    -3.6620     2.2220 hc         1 W07       0.037867
     49 H21         -1.9760    -4.7570     1.1690 hc         1 W07       0.037867
     50 H22         -0.2570    -5.0510     1.4650 hc         1 W07       0.037867
     51 H23          0.3280    -1.4390    -1.5720 ha         1 W07       0.114500
     52 H24          2.3850    -0.1210    -1.3910 ha         1 W07       0.121000
     53 H25          5.2720     0.9480     1.9500 ho         1 W07       0.437000
     54 H26          7.8770     3.2470     0.8840 hc         1 W07       0.037033
     55 H27          8.6450     2.0130    -0.1340 hc         1 W07       0.037033
     56 H28          8.3940     3.6540    -0.7570 hc         1 W07       0.037033
     57 H29          7.2300     2.7890    -2.7560 hc         1 W07       0.037033
     58 H30          7.3750     1.1000    -2.2350 hc         1 W07       0.037033
     59 H31          5.7860     1.7760    -2.6500 hc         1 W07       0.037033
     60 H32          5.4470     4.0240     0.3690 hc         1 W07       0.037033
     61 H33          6.0450     4.5100    -1.2240 hc         1 W07       0.037033
     62 H34          4.6370     3.4500    -1.1020 hc         1 W07       0.037033
     63 C10         -0.6580    -3.3900     0.0730 c3         1 W07       0.061600
@<TRIPOS>BOND
     1     1     4 ar  
     2     1     6 ar  
     3     1    19 1   
     4     2     3 1   
     5     2    19 1   
     6     2    29 1   
     7     2    30 1   
     8     3     8 1   
     9     3    18 1   
    10     3    31 1   
    11     4     5 ar  
    12     4    32 1   
    13     5    20 ar  
    14     5    33 1   
    15     6     7 ar  
    16     6    34 1   
    17     7    20 ar  
    18     7    35 1   
    19     8    17 1   
    20     8    36 1   
    21     8    37 1   
    22     9    38 1   
    23     9    39 1   
    24     9    40 1   
    25     9    63 1   
    26    10    13 ar  
    27    10    22 ar  
    28    10    63 1   
    29    11    12 ar  
    30    11    23 ar  
    31    11    24 1   
    32    12    13 ar  
    33    12    41 1   
    34    13    42 1   
    35    14    15 1   
    36    14    24 1   
    37    14    43 1   
    38    14    44 1   
    39    15    16 1   
    40    15    25 1   
    41    15    45 1   
    42    16    26 1   
    43    16    27 1   
    44    16    28 1   
    45    17    46 1   
    46    18    47 1   
    47    20    63 1   
    48    21    48 1   
    49    21    49 1   
    50    21    50 1   
    51    21    63 1   
    52    22    23 ar  
    53    22    51 1   
    54    23    52 1   
    55    25    53 1   
    56    26    54 1   
    57    26    55 1   
    58    26    56 1   
    59    27    57 1   
    60    27    58 1   
    61    27    59 1   
    62    28    60 1   
    63    28    61 1   
    64    28    62 1   
@<TRIPOS>SUBSTRUCTURE
     1 W07         1 TEMP              0 ****  ****    0 ROOT
