@<TRIPOS>MOLECULE
W08
   50    53     1     0     0
SMALL
No Charge or Current Charge


@<TRIPOS>ATOM
      1 C02         77.8760   -10.0480     9.3110 c          1 W08       0.589100
      2 C05         75.1280    -9.4010     6.8020 c6         1 W08      -0.112900
      3 C08         75.8120    -6.7160     6.5900 c6         1 W08       0.172300
      4 C09         76.7760    -7.5430     7.4670 c6         1 W08      -0.112900
      5 C11         78.8850   -11.2370     9.1730 c5         1 W08       0.045300
      6 C13         80.3320   -11.6540     7.3570 c5         1 W08       0.320300
      7 C15         79.9230   -10.5910     5.0840 ca         1 W08       0.140500
      8 C17         79.0440    -8.6460     4.2560 ca         1 W08       0.184900
      9 C19         79.8260   -10.1660     2.7370 ca         1 W08       0.456900
     10 C23         80.8870   -12.6010     5.0780 cc         1 W08       0.427700
     11 C24         80.9030   -10.4290     8.1420 c5         1 W08       0.129300
     12 C26         80.3290   -10.7510     9.5500 c5         1 W08       0.111300
     13 C04         76.1270    -8.8950     7.8840 c6         1 W08       0.111700
     14 C06         75.5150    -8.9010     5.3920 c6         1 W08       0.172300
     15 C21         80.1820   -11.0150     3.8050 ca         1 W08      -0.101600
     16 N03         77.1660    -9.8980     8.1420 ns         1 W08      -0.485900
     17 N07         75.5060    -7.4070     5.3000 n3         1 W08      -0.730600
     18 N14         80.3690   -11.5960     5.8980 na         1 W08      -0.284300
     19 N16         79.3490    -9.3990     5.3400 nb         1 W08      -0.250000
     20 N18         79.2560    -8.9720     2.9590 nb         1 W08      -0.301000
     21 N20         80.0450   -10.4940     1.4360 nv         1 W08      -1.059900
     22 N22         80.7890   -12.2750     3.7740 nd         1 W08      -0.549100
     23 O01         77.7080    -9.3330    10.2910 o          1 W08      -0.624100
     24 O12         78.9630   -11.7420     7.7990 os         1 W08      -0.437000
     25 O25         82.3360   -10.3690     8.1900 oh         1 W08      -0.685000
     26 O27         81.1100   -11.7870    10.1770 oh         1 W08      -0.699000
     27 H2          75.0640   -10.4980     6.8140 hc         1 W08       0.056450
     28 H3          76.2530    -5.7280     6.3920 h1         1 W08       0.042200
     29 H4          74.8880    -6.5440     7.1630 h1         1 W08       0.042200
     30 H5          77.7060    -7.7140     6.9100 hc         1 W08       0.056450
     31 H6          77.0550    -6.9730     8.3630 hc         1 W08       0.056450
     32 H7          78.5330   -12.0410     9.8320 h1         1 W08       0.094700
     33 H8          80.8670   -12.5660     7.6540 h2         1 W08       0.092700
     34 H9          78.5780    -7.6810     4.4480 h5         1 W08       0.044100
     35 H10         81.3070   -13.5170     5.4780 h5         1 W08       0.073800
     36 H11         80.4870    -9.4880     7.7570 h1         1 W08       0.068700
     37 H12         80.3090    -9.8510    10.1830 h1         1 W08       0.070700
     38 H13         75.5600    -8.7470     8.8160 h1         1 W08       0.069700
     39 H14         74.8390    -9.3450     4.6460 h1         1 W08       0.042200
     40 H15         76.5200    -9.2800     5.1600 h1         1 W08       0.042200
     41 H16         74.3910    -5.7680     4.5160 h1         1 W08       0.029033
     42 H17         74.1760    -7.2970     3.6380 h1         1 W08       0.029033
     43 H18         73.4010    -7.0680     5.2240 h1         1 W08       0.029033
     44 H19         77.4220   -10.5460     7.4030 hn         1 W08       0.362500
     45 H21         80.0490    -9.7440     0.7500 hn         1 W08       0.509500
     46 H22         80.6670   -11.2790     1.2570 hn         1 W08       0.509500
     47 H23         82.5660   -10.9420     8.9640 ho         1 W08       0.519000
     48 H24         80.7630   -11.9120    11.0940 ho         1 W08       0.515000
     49 H1          74.1180    -9.0400     7.0410 hc         1 W08       0.056450
     50 C10         74.3040    -6.8560     4.6350 c3         1 W08       0.158100
@<TRIPOS>BOND
     1     1     5 1   
     2     1    16 1   
     3     1    23 2   
     4     2    13 1   
     5     2    14 1   
     6     2    27 1   
     7     2    49 1   
     8     3     4 1   
     9     3    17 1   
    10     3    28 1   
    11     3    29 1   
    12     4    13 1   
    13     4    30 1   
    14     4    31 1   
    15     5    12 1   
    16     5    24 1   
    17     5    32 1   
    18     6    11 1   
    19     6    18 1   
    20     6    24 1   
    21     6    33 1   
    22     7    15 ar  
    23     7    18 1   
    24     7    19 ar  
    25     8    19 ar  
    26     8    20 ar  
    27     8    34 1   
    28     9    15 ar  
    29     9    20 ar  
    30     9    21 1   
    31    10    18 1   
    32    10    22 2   
    33    10    35 1   
    34    11    12 1   
    35    11    25 1   
    36    11    36 1   
    37    12    26 1   
    38    12    37 1   
    39    13    16 1   
    40    13    38 1   
    41    14    17 1   
    42    14    39 1   
    43    14    40 1   
    44    15    22 1   
    45    16    44 1   
    46    17    50 1   
    47    21    45 1   
    48    21    46 1   
    49    25    47 1   
    50    26    48 1   
    51    41    50 1   
    52    42    50 1   
    53    43    50 1   
@<TRIPOS>SUBSTRUCTURE
     1 W08         1 TEMP              0 ****  ****    0 ROOT
