@<TRIPOS>MOLECULE
W08
   50    53     1     0     0
SMALL
abcg2


@<TRIPOS>ATOM
      1 C02         77.5780   -10.4180     8.8470 c          1 W08       0.589100
      2 C05         75.5250    -8.9940     6.1100 c6         1 W08      -0.112900
      3 C08         75.4920    -6.5720     7.4640 c6         1 W08       0.172300
      4 C09         76.5540    -7.5610     7.9150 c6         1 W08      -0.112900
      5 C11         78.7770   -11.3510     8.9130 c5         1 W08       0.045300
      6 C13         80.4280   -11.7770     7.3650 c5         1 W08       0.320300
      7 C15         79.9560   -11.1750     4.9500 ca         1 W08       0.140500
      8 C17         78.5600    -9.8750     3.8520 ca         1 W08       0.184900
      9 C19         80.0710   -11.0470     2.5780 ca         1 W08       0.456900
     10 C23         81.5660   -12.6110     5.3230 cc         1 W08       0.427700
     11 C24         80.7740   -10.4400     8.0090 c5         1 W08       0.129300
     12 C26         80.0540   -10.5930     9.3520 c5         1 W08       0.111300
     13 C04         76.1250    -8.9830     7.5310 c6         1 W08       0.111700
     14 C06         75.8830    -7.7180     5.3550 c6         1 W08       0.172300
     15 C21         80.5700   -11.5870     3.7770 ca         1 W08      -0.101600
     16 N03         77.2200    -9.9320     7.6570 ns         1 W08      -0.485900
     17 N07         75.4080    -6.5060     6.0090 n3         1 W08      -0.730600
     18 N14         80.6140   -11.8460     5.9440 na         1 W08      -0.284300
     19 N16         78.9390   -10.3160     5.0410 nb         1 W08      -0.250000
     20 N18         79.0550   -10.1800     2.6590 nb         1 W08      -0.301000
     21 N20         80.5640   -11.3650     1.3830 nv         1 W08      -1.059900
     22 N22         81.5760   -12.4830     4.0330 nd         1 W08      -0.549100
     23 O01         77.0210   -10.1380     9.9020 o          1 W08      -0.624100
     24 O12         79.0790   -11.9840     7.6770 os         1 W08      -0.437000
     25 O25         82.1540   -10.2840     8.0530 oh         1 W08      -0.685000
     26 O27         80.8660   -11.3640    10.1930 oh         1 W08      -0.699000
     27 H2          75.8600    -9.8720     5.5540 hc         1 W08       0.056450
     28 H3          75.7000    -5.5760     7.8660 h1         1 W08       0.042200
     29 H4          74.5310    -6.8840     7.9080 h1         1 W08       0.042200
     30 H5          77.5190    -7.3200     7.4610 hc         1 W08       0.056450
     31 H6          76.6880    -7.4920     8.9950 hc         1 W08       0.056450
     32 H7          78.5290   -12.1110     9.6620 h1         1 W08       0.094700
     33 H8          81.0680   -12.5610     7.7890 h2         1 W08       0.092700
     34 H9          77.7360    -9.1710     3.8460 h5         1 W08       0.044100
     35 H10         82.2250   -13.2460     5.8970 h5         1 W08       0.073800
     36 H11         80.2830    -9.6340     7.4460 h1         1 W08       0.068700
     37 H12         79.8090    -9.6260     9.8050 h1         1 W08       0.070700
     38 H13         75.3500    -9.2960     8.2330 h1         1 W08       0.069700
     39 H14         75.4770    -7.7510     4.3430 h1         1 W08       0.042200
     40 H15         76.9710    -7.6610     5.2410 h1         1 W08       0.042200
     41 H16         73.8440    -5.1300     6.0330 h1         1 W08       0.029033
     42 H17         74.0710    -5.9570     4.4970 h1         1 W08       0.029033
     43 H18         73.2910    -6.7960     5.8510 h1         1 W08       0.029033
     44 H19         77.7720   -10.1490     6.8290 hn         1 W08       0.362500
     45 H21         80.1860   -10.9460     0.5500 hn         1 W08       0.509500
     46 H22         81.3370   -12.0010     1.2900 hn         1 W08       0.509500
     47 H23         82.3600    -9.3740     8.2880 ho         1 W08       0.519000
     48 H24         80.4200   -11.4650    11.0400 ho         1 W08       0.515000
     49 H1          74.4380    -9.0800     6.1780 hc         1 W08       0.056450
     50 C10         74.0930    -6.0910     5.5790 c3         1 W08       0.158100
@<TRIPOS>BOND
     1     1     5 1   
     2     1    16 1   
     3     1    23 2   
     4     2    13 1   
     5     2    14 1   
     6     2    27 1   
     7     2    49 1   
     8     3     4 1   
     9     3    17 1   
    10     3    28 1   
    11     3    29 1   
    12     4    13 1   
    13     4    30 1   
    14     4    31 1   
    15     5    12 1   
    16     5    24 1   
    17     5    32 1   
    18     6    11 1   
    19     6    18 1   
    20     6    24 1   
    21     6    33 1   
    22     7    15 ar  
    23     7    18 1   
    24     7    19 ar  
    25     8    19 ar  
    26     8    20 ar  
    27     8    34 1   
    28     9    15 ar  
    29     9    20 ar  
    30     9    21 1   
    31    10    18 1   
    32    10    22 2   
    33    10    35 1   
    34    11    12 1   
    35    11    25 1   
    36    11    36 1   
    37    12    26 1   
    38    12    37 1   
    39    13    16 1   
    40    13    38 1   
    41    14    17 1   
    42    14    39 1   
    43    14    40 1   
    44    15    22 1   
    45    16    44 1   
    46    17    50 1   
    47    21    45 1   
    48    21    46 1   
    49    25    47 1   
    50    26    48 1   
    51    41    50 1   
    52    42    50 1   
    53    43    50 1   
@<TRIPOS>SUBSTRUCTURE
     1 W08         1 TEMP              0 ****  ****    0 ROOT
