@<TRIPOS>MOLECULE
W09
   52    53     1     0     0
SMALL
abcg2


@<TRIPOS>ATOM
      1 FBN         -7.2480    -1.4900     0.4660 f          1 W09      -0.084333
      2 CAY         -7.1060    -0.1880     0.2740 c3         1 W09       0.281000
      3 FBO         -8.1050     0.2350    -0.4890 f          1 W09      -0.084333
      4 FBP         -7.1760     0.4330     1.4440 f          1 W09      -0.084333
      5 CAX         -5.7660     0.1260    -0.4430 c3         1 W09       0.082000
      6 FBL         -5.7050    -0.6520    -1.5360 f          1 W09      -0.061000
      7 FBM         -5.8010     1.4090    -0.8270 f          1 W09      -0.061000
      8 CAW         -4.4930    -0.0950     0.4240 c3         1 W09       0.108000
      9 FBJ         -4.4280     0.9060     1.3150 f          1 W09      -0.063000
     10 FBK         -4.6170    -1.2530     1.0900 f          1 W09      -0.063000
     11 CAV         -3.1660    -0.1470    -0.3960 c3         1 W09       0.113000
     12 FBH         -3.0890    -1.3520    -0.9790 f          1 W09      -0.060500
     13 FBI         -3.2050     0.7930    -1.3520 f          1 W09      -0.060500
     14 CAU         -1.8850     0.0900     0.4650 c3         1 W09       0.112000
     15 FBF         -1.8100     1.4010     0.7370 f          1 W09      -0.062000
     16 FBG         -2.0050    -0.5860     1.6170 f          1 W09      -0.062000
     17 CAT         -0.5630    -0.3650    -0.2310 c3         1 W09       0.109000
     18 FBD         -0.4900    -1.7020    -0.1470 f          1 W09      -0.065500
     19 FBE         -0.6110    -0.0160    -1.5260 f          1 W09      -0.065500
     20 CAS          0.7240     0.2550     0.3920 c3         1 W09       0.107000
     21 FBB          0.8060     1.5350    -0.0150 f          1 W09      -0.065000
     22 FBC          0.6120     0.2400     1.7300 f          1 W09      -0.065000
     23 CAR          2.0550    -0.4440     0.0090 c3         1 W09       0.058000
     24 FAZ          2.1410    -1.6100     0.6670 f          1 W09      -0.084000
     25 FBA          2.0320    -0.7100    -1.3150 f          1 W09      -0.084000
     26 CAP          3.2660     0.4370     0.4000 c          1 W09       0.576100
     27 OAQ          3.5750     0.4760     1.5760 o          1 W09      -0.587100
     28 N            3.8270     1.0890    -0.6060 ns         1 W09      -0.429900
     29 CA           4.9520     1.9900    -0.4770 c3         1 W09      -0.041300
     30 C            4.8130     3.1270    -1.5160 c          1 W09       0.717000
     31 OXT          5.5610     4.1040    -1.3410 o          1 W09      -0.713500
     32 O            4.0080     2.9400    -2.4480 o          1 W09      -0.713500
     33 CB           6.2880     1.2580    -0.7150 c3         1 W09      -0.012200
     34 CG           6.4730     0.0530     0.1430 cc         1 W09      -0.112400
     35 CD2          5.9750    -1.2690    -0.1020 ca         1 W09      -0.090800
     36 CE3          5.2650    -1.8610    -1.1540 ca         1 W09      -0.054000
     37 CZ3          4.9270    -3.1970    -1.0670 ca         1 W09      -0.155000
     38 CH2          5.2860    -3.9650     0.0530 ca         1 W09      -0.100000
     39 CZ2          5.9910    -3.4110     1.1040 ca         1 W09      -0.138000
     40 CE2          6.3240    -2.0600     1.0150 ca         1 W09      -0.045200
     41 NE1          7.0020    -1.2570     1.8840 na         1 W09      -0.228700
     42 CD1          7.0910     0.0020     1.3600 cd         1 W09      -0.163100
     43 H1           3.4250     1.0710    -1.5330 hn         1 W09       0.355500
     44 H2           4.9530     2.4040     0.5330 h1         1 W09       0.065700
     45 H4           6.3480     0.9760    -1.7710 hc         1 W09       0.056200
     46 H5           7.0910     1.9760    -0.5410 hc         1 W09       0.056200
     47 H6           4.9830    -1.2850    -2.0260 ha         1 W09       0.122000
     48 H7           4.3760    -3.6640    -1.8740 ha         1 W09       0.101000
     49 H8           5.0070    -5.0100     0.0930 ha         1 W09       0.095000
     50 H9           6.2710    -4.0040     1.9660 ha         1 W09       0.099000
     51 H10          7.3960    -1.5460     2.7630 hn         1 W09       0.337000
     52 H11          7.5930     0.7860     1.9050 h4         1 W09       0.208000
@<TRIPOS>BOND
     1     1     2 1   
     2     2     3 1   
     3     2     4 1   
     4     2     5 1   
     5     5     6 1   
     6     5     7 1   
     7     5     8 1   
     8     8     9 1   
     9     8    10 1   
    10     8    11 1   
    11    11    12 1   
    12    11    13 1   
    13    11    14 1   
    14    14    15 1   
    15    14    16 1   
    16    14    17 1   
    17    17    18 1   
    18    17    19 1   
    19    17    20 1   
    20    20    21 1   
    21    20    22 1   
    22    20    23 1   
    23    23    24 1   
    24    23    25 1   
    25    23    26 1   
    26    26    27 2   
    27    26    28 1   
    28    28    29 1   
    29    28    43 1   
    30    29    30 1   
    31    29    33 1   
    32    29    44 1   
    33    30    31 1   
    34    30    32 1   
    35    33    34 1   
    36    33    45 1   
    37    33    46 1   
    38    34    35 1   
    39    34    42 2   
    40    35    36 ar  
    41    35    40 ar  
    42    36    37 ar  
    43    36    47 1   
    44    37    38 ar  
    45    37    48 1   
    46    38    39 ar  
    47    38    49 1   
    48    39    40 ar  
    49    39    50 1   
    50    40    41 1   
    51    41    42 1   
    52    41    51 1   
    53    42    52 1   
@<TRIPOS>SUBSTRUCTURE
     1 W09         1 TEMP              0 ****  ****    0 ROOT
