@<TRIPOS>MOLECULE
W09
   52    53     1     0     0
SMALL
No Charge or Current Charge


@<TRIPOS>ATOM
      1 FBN         -7.4200    -0.7170     1.4770 f          1 W09      -0.084333
      2 CAY         -7.3050    -0.0920     0.2810 c3         1 W09       0.281000
      3 FBO         -8.3520    -0.4830    -0.4820 f          1 W09      -0.084333
      4 FBP         -7.4380     1.2360     0.5080 f          1 W09      -0.084333
      5 CAX         -5.9450    -0.4260    -0.4180 c3         1 W09       0.082000
      6 FBL         -5.8940    -1.7640    -0.6300 f          1 W09      -0.061000
      7 FBM         -5.9580     0.1380    -1.6500 f          1 W09      -0.061000
      8 CAW         -4.6430     0.0340     0.3500 c3         1 W09       0.108000
      9 FBJ         -4.6760     1.3820     0.4830 f          1 W09      -0.063000
     10 FBK         -4.6980    -0.4440     1.6170 f          1 W09      -0.063000
     11 CAV         -3.2600    -0.3890    -0.2930 c3         1 W09       0.113000
     12 FBH         -3.1830    -1.7420    -0.3000 f          1 W09      -0.060500
     13 FBI         -3.2580    -0.0310    -1.6000 f          1 W09      -0.060500
     14 CAU         -1.9580     0.1960     0.3920 c3         1 W09       0.112000
     15 FBF         -1.9680     1.5440     0.2570 f          1 W09      -0.062000
     16 FBG         -2.0270    -0.0240     1.7270 f          1 W09      -0.062000
     17 CAT         -0.5750    -0.3610    -0.1380 c3         1 W09       0.109000
     18 FBD         -0.5010    -1.6840     0.1470 f          1 W09      -0.065500
     19 FBE         -0.5610    -0.2930    -1.4920 f          1 W09      -0.065500
     20 CAS          0.7240     0.3520     0.4140 c3         1 W09       0.107000
     21 FBB          0.7420     1.6360    -0.0190 f          1 W09      -0.065000
     22 FBC          0.6540     0.4390     1.7640 f          1 W09      -0.065000
     23 CAR          2.0990    -0.3010     0.0330 c3         1 W09       0.058000
     24 FAZ          2.1950    -1.5300     0.6000 f          1 W09      -0.084000
     25 FBA          2.1520    -0.5150    -1.3060 f          1 W09      -0.084000
     26 CAP          3.2940     0.5800     0.5000 c          1 W09       0.576100
     27 OAQ          3.6520     0.6430     1.6710 o          1 W09      -0.587100
     28 N            3.9490     1.2780    -0.5000 ns         1 W09      -0.429900
     29 CA           5.1930     2.0680    -0.3260 c3         1 W09      -0.041300
     30 C            5.1390     3.3600    -1.1910 c          1 W09       0.717000
     31 OXT          5.4070     4.4250    -0.6530 o          1 W09      -0.713500
     32 O            4.7340     3.2700    -2.3430 o          1 W09      -0.713500
     33 CB           6.4640     1.2400    -0.6490 c3         1 W09      -0.012200
     34 CG           6.5880    -0.0340     0.1500 cc         1 W09      -0.112400
     35 CD2          6.0150    -1.3130    -0.1700 ca         1 W09      -0.090800
     36 CE3          5.2570    -1.7190    -1.2780 ca         1 W09      -0.054000
     37 CZ3          4.8050    -3.0550    -1.3170 ca         1 W09      -0.155000
     38 CH2          5.1210    -3.9460    -0.2650 ca         1 W09      -0.100000
     39 CZ2          5.8950    -3.5080     0.8300 ca         1 W09      -0.138000
     40 CE2          6.3290    -2.1750     0.8430 ca         1 W09      -0.045200
     41 NE1          7.0900    -1.5420     1.8070 na         1 W09      -0.228700
     42 CD1          7.2470    -0.2050     1.3640 cd         1 W09      -0.163100
     43 H1           3.5680     1.1990    -1.4370 hn         1 W09       0.355500
     44 H2           5.2540     2.3900     0.7220 h1         1 W09       0.065700
     45 H4           6.4740     1.0010    -1.7190 hc         1 W09       0.056200
     46 H5           7.3460     1.8670    -0.4710 hc         1 W09       0.056200
     47 H6           5.0200    -1.0270    -2.0830 ha         1 W09       0.122000
     48 H7           4.2100    -3.4000    -2.1590 ha         1 W09       0.101000
     49 H8           4.7690    -4.9750    -0.3020 ha         1 W09       0.095000
     50 H9           6.1470    -4.1870     1.6420 ha         1 W09       0.099000
     51 H10          7.4550    -1.9510     2.6620 hn         1 W09       0.337000
     52 H11          7.7990     0.5270     1.9470 h4         1 W09       0.208000
@<TRIPOS>BOND
     1     1     2 1   
     2     2     3 1   
     3     2     4 1   
     4     2     5 1   
     5     5     6 1   
     6     5     7 1   
     7     5     8 1   
     8     8     9 1   
     9     8    10 1   
    10     8    11 1   
    11    11    12 1   
    12    11    13 1   
    13    11    14 1   
    14    14    15 1   
    15    14    16 1   
    16    14    17 1   
    17    17    18 1   
    18    17    19 1   
    19    17    20 1   
    20    20    21 1   
    21    20    22 1   
    22    20    23 1   
    23    23    24 1   
    24    23    25 1   
    25    23    26 1   
    26    26    27 2   
    27    26    28 1   
    28    28    29 1   
    29    28    43 1   
    30    29    30 1   
    31    29    33 1   
    32    29    44 1   
    33    30    31 1   
    34    30    32 1   
    35    33    34 1   
    36    33    45 1   
    37    33    46 1   
    38    34    35 1   
    39    34    42 2   
    40    35    36 ar  
    41    35    40 ar  
    42    36    37 ar  
    43    36    47 1   
    44    37    38 ar  
    45    37    48 1   
    46    38    39 ar  
    47    38    49 1   
    48    39    40 ar  
    49    39    50 1   
    50    40    41 1   
    51    41    42 1   
    52    41    51 1   
    53    42    52 1   
@<TRIPOS>SUBSTRUCTURE
     1 W09         1 TEMP              0 ****  ****    0 ROOT
