@<TRIPOS>MOLECULE
W0A
   31    32     1     0     0
SMALL
bcc


@<TRIPOS>ATOM
      1 N1          14.0670     6.1030    11.2340 na         1 W0A      -0.259300
      2 C4          14.5570     8.5240    11.5850 c3         1 W0A       0.089700
      3 C5          14.7870     7.2090    10.9160 cc         1 W0A       0.406800
      4 C6          14.4840     5.0930    10.4080 ca         1 W0A      -0.076200
      5 C7          14.1120     3.7600    10.2840 ca         1 W0A      -0.136000
      6 C8          14.7670     3.0200     9.3120 ca         1 W0A      -0.112000
      7 C10         16.1220     4.9200     8.6320 ca         1 W0A      -0.064000
      8 O           16.2310     7.5450    13.5250 o          1 W0A      -0.574100
      9 C3          15.1200     7.9180    13.8720 c          1 W0A       0.656100
     10 C2          14.6520     7.8530    15.3080 c3         1 W0A      -0.155400
     11 C1          15.6990     8.3840    16.2820 c3         1 W0A      -0.065400
     12 C           15.9560     9.8760    16.1240 c3         1 W0A      -0.093100
     13 N           14.2270     8.3930    12.9820 ns         1 W0A      -0.596900
     14 N2          15.6360     7.0030     9.9490 nd         1 W0A      -0.566100
     15 C11         15.4720     5.6820     9.6010 ca         1 W0A       0.072400
     16 C9          15.7570     3.5910     8.4990 ca         1 W0A      -0.155000
     17 H1          13.3570     6.0450    11.9460 hn         1 W0A       0.302700
     18 H2          15.4430     9.1440    11.4360 h1         1 W0A       0.074200
     19 H3          13.7230     9.0330    11.0990 h1         1 W0A       0.074200
     20 H4          13.3490     3.3170    10.9100 ha         1 W0A       0.132000
     21 H5          14.5080     1.9780     9.1780 ha         1 W0A       0.129000
     22 H6          16.8870     5.3570     8.0030 ha         1 W0A       0.146000
     23 H7          13.7100     8.3900    15.4380 hc         1 W0A       0.054700
     24 H8          14.4430     6.8010    15.5290 hc         1 W0A       0.054700
     25 H9          15.3570     8.1770    17.2990 hc         1 W0A       0.053200
     26 H10         16.6290     7.8270    16.1530 hc         1 W0A       0.053200
     27 H11         16.6880    10.2270    16.8520 hc         1 W0A       0.035367
     28 H12         16.3430    10.1160    15.1330 hc         1 W0A       0.035367
     29 H13         15.0410    10.4510    16.2700 hc         1 W0A       0.035367
     30 H14         13.3380     8.7410    13.2990 hn         1 W0A       0.317500
     31 H16         16.2440     2.9760     7.7530 ha         1 W0A       0.131000
@<TRIPOS>BOND
     1     1     3 1   
     2     1     4 1   
     3     1    17 1   
     4     2     3 1   
     5     2    13 1   
     6     2    18 1   
     7     2    19 1   
     8     3    14 2   
     9     4     5 ar  
    10     4    15 ar  
    11     5     6 ar  
    12     5    20 1   
    13     6    16 ar  
    14     6    21 1   
    15     7    15 ar  
    16     7    16 ar  
    17     7    22 1   
    18     8     9 2   
    19     9    10 1   
    20     9    13 1   
    21    10    11 1   
    22    10    23 1   
    23    10    24 1   
    24    11    12 1   
    25    11    25 1   
    26    11    26 1   
    27    12    27 1   
    28    12    28 1   
    29    12    29 1   
    30    13    30 1   
    31    14    15 1   
    32    16    31 1   
@<TRIPOS>SUBSTRUCTURE
     1 W0A         1 TEMP              0 ****  ****    0 ROOT
