@<TRIPOS>MOLECULE
W0A
   31    32     1     0     0
SMALL
No Charge or Current Charge


@<TRIPOS>ATOM
      1 N1          14.1960     6.0340    11.2060 na         1 W0A      -0.309600
      2 C4          14.9820     8.4270    11.7180 c3         1 W0A       0.089700
      3 C5          15.0100     7.1320    10.9310 cc         1 W0A       0.406800
      4 C6          14.4940     5.0770    10.2870 ca         1 W0A      -0.076200
      5 C7          13.9710     3.7900    10.1200 ca         1 W0A      -0.118000
      6 C8          14.4820     3.0130     9.0590 ca         1 W0A      -0.094000
      7 C10         15.9860     4.8460     8.4160 ca         1 W0A      -0.046000
      8 O           16.5450     7.2450    13.8050 o          1 W0A      -0.574100
      9 C3          15.4550     7.7150    14.0920 c          1 W0A       0.589100
     10 C2          14.8860     7.6770    15.5140 c3         1 W0A      -0.155400
     11 C1          15.5990     8.6720    16.4630 c3         1 W0A      -0.065400
     12 C           15.4260    10.1510    16.0600 c3         1 W0A      -0.093100
     13 N           14.6330     8.2850    13.1460 ns         1 W0A      -0.529900
     14 N2          15.8000     6.8930     9.8620 nd         1 W0A      -0.566100
     15 C11         15.4620     5.5980     9.4770 ca         1 W0A       0.072400
     16 C9          15.4860     3.5390     8.2100 ca         1 W0A      -0.137000
     17 H1          13.5190     5.9750    11.9540 hn         1 W0A       0.353000
     18 H2          15.9670     8.9050    11.6430 h1         1 W0A       0.074200
     19 H3          14.2550     9.1000    11.2460 h1         1 W0A       0.074200
     20 H4          13.1990     3.4010    10.7820 ha         1 W0A       0.114000
     21 H5          14.1040     2.0060     8.8930 ha         1 W0A       0.111000
     22 H6          16.7560     5.2590     7.7690 ha         1 W0A       0.128000
     23 H7          13.8160     7.9160    15.5010 hc         1 W0A       0.054700
     24 H8          15.0270     6.6670    15.9160 hc         1 W0A       0.054700
     25 H9          15.2060     8.5360    17.4790 hc         1 W0A       0.053200
     26 H10         16.6690     8.4330    16.5070 hc         1 W0A       0.053200
     27 H11         15.9150    10.8050    16.7920 hc         1 W0A       0.035367
     28 H12         15.8740    10.3470    15.0780 hc         1 W0A       0.035367
     29 H13         14.3640    10.4210    16.0180 hc         1 W0A       0.035367
     30 H14         13.7460     8.6540    13.4720 hn         1 W0A       0.317500
     31 H16         15.8760     2.9350     7.3940 ha         1 W0A       0.113000
@<TRIPOS>BOND
     1     1     3 1   
     2     1     4 1   
     3     1    17 1   
     4     2     3 1   
     5     2    13 1   
     6     2    18 1   
     7     2    19 1   
     8     3    14 2   
     9     4     5 ar  
    10     4    15 ar  
    11     5     6 ar  
    12     5    20 1   
    13     6    16 ar  
    14     6    21 1   
    15     7    15 ar  
    16     7    16 ar  
    17     7    22 1   
    18     8     9 2   
    19     9    10 1   
    20     9    13 1   
    21    10    11 1   
    22    10    23 1   
    23    10    24 1   
    24    11    12 1   
    25    11    25 1   
    26    11    26 1   
    27    12    27 1   
    28    12    28 1   
    29    12    29 1   
    30    13    30 1   
    31    14    15 1   
    32    16    31 1   
@<TRIPOS>SUBSTRUCTURE
     1 W0A         1 TEMP              0 ****  ****    0 ROOT
