@<TRIPOS>MOLECULE
W0C
   32    32     1     0     0
SMALL
No Charge or Current Charge


@<TRIPOS>ATOM
      1 N1          25.2870     2.7440    30.6250 ns         1 W0C      -0.163000
      2 C7          23.7500     4.3190    31.8170 ca         1 W0C      -0.104000
      3 C8          23.6100     5.5610    32.4620 ca         1 W0C      -0.132000
      4 N2          25.9410     6.0900    32.0800 nb         1 W0C      -0.641000
      5 C9          24.7230     6.4120    32.5710 ca         1 W0C       0.295900
      6 C1          25.6440    -1.7140    29.1620 c3         1 W0C      -0.092900
      7 C5          24.4840     1.6560    30.3220 c          1 W0C       0.663100
      8 C6          25.0170     3.9700    31.2990 ca         1 W0C      -0.050000
      9 C4          24.7640     0.0960    26.6590 c3         1 W0C      -0.089100
     10 C3          23.8650    -0.3940    27.8180 c3         1 W0C      -0.092900
     11 C2          24.5830    -0.5850    29.1800 c3         1 W0C       0.125700
     12 O           23.3000     1.5520    30.6080 o          1 W0C      -0.632100
     13 N           25.1700     0.6730    29.6480 ns         1 W0C      -0.522900
     14 C           26.2440    -2.0310    30.5490 c3         1 W0C      -0.089100
     15 C10         26.0740     4.8940    31.4590 ca         1 W0C       0.273900
     16 H1          26.2440     2.6540    30.3110 hn         1 W0C       0.145000
     17 H2          22.8880     3.6640    31.7330 ha         1 W0C       0.157000
     18 H3          22.6520     5.8660    32.8740 ha         1 W0C       0.124000
     19 H4          24.6370     7.3780    33.0670 h4         1 W0C       0.021100
     20 H5          25.1840    -2.6280    28.7650 hc         1 W0C       0.048950
     21 H6          26.4590    -1.4480    28.4780 hc         1 W0C       0.048950
     22 H7          24.1650     0.2320    25.7500 hc         1 W0C       0.034700
     23 H8          25.2320     1.0570    26.9010 hc         1 W0C       0.034700
     24 H9          25.5530    -0.6310    26.4340 hc         1 W0C       0.034700
     25 H10         23.0460     0.3220    27.9500 hc         1 W0C       0.048950
     26 H11         23.3970    -1.3420    27.5270 hc         1 W0C       0.048950
     27 H12         23.8130    -0.8870    29.9060 h1         1 W0C       0.082700
     28 H13         26.1480     0.8440    29.4550 hn         1 W0C       0.306500
     29 H14         26.9500    -2.8670    30.4760 hc         1 W0C       0.034700
     30 H15         26.7830    -1.1660    30.9540 hc         1 W0C       0.034700
     31 H16         25.4550    -2.3110    31.2580 hc         1 W0C       0.034700
     32 H17         27.0680     4.6670    31.0750 h4         1 W0C       0.010100
@<TRIPOS>BOND
     1     1     7 1   
     2     1     8 1   
     3     1    16 1   
     4     2     3 ar  
     5     2     8 ar  
     6     2    17 1   
     7     3     5 ar  
     8     3    18 1   
     9     4     5 ar  
    10     4    15 ar  
    11     5    19 1   
    12     6    11 1   
    13     6    14 1   
    14     6    20 1   
    15     6    21 1   
    16     7    12 2   
    17     7    13 1   
    18     8    15 ar  
    19     9    10 1   
    20     9    22 1   
    21     9    23 1   
    22     9    24 1   
    23    10    11 1   
    24    10    25 1   
    25    10    26 1   
    26    11    13 1   
    27    11    27 1   
    28    13    28 1   
    29    14    29 1   
    30    14    30 1   
    31    14    31 1   
    32    15    32 1   
@<TRIPOS>SUBSTRUCTURE
     1 W0C         1 TEMP              0 ****  ****    0 ROOT
