@<TRIPOS>MOLECULE
W0C
   32    32     1     0     0
SMALL
abcg2


@<TRIPOS>ATOM
      1 N1          25.3620     2.8370    30.5110 ns         1 W0C      -0.163000
      2 C7          23.8740     4.1330    32.0110 ca         1 W0C      -0.104000
      3 C8          23.7010     5.3220    32.7060 ca         1 W0C      -0.132000
      4 N2          25.7920     6.1600    31.9200 nb         1 W0C      -0.641000
      5 C9          24.6730     6.3090    32.6380 ca         1 W0C       0.295900
      6 C1          25.5810    -1.6280    29.2330 c3         1 W0C      -0.092900
      7 C5          24.5900     1.7120    30.2760 c          1 W0C       0.663100
      8 C6          25.0360     3.9680    31.2540 ca         1 W0C      -0.050000
      9 C4          24.8970    -0.1030    26.5900 c3         1 W0C      -0.089100
     10 C3          23.9240    -0.3670    27.7370 c3         1 W0C      -0.092900
     11 C2          24.5740    -0.4800    29.1250 c3         1 W0C       0.125700
     12 O           23.4490     1.5800    30.7210 o          1 W0C      -0.632100
     13 N           25.2120     0.7710    29.5250 ns         1 W0C      -0.522900
     14 C           26.0120    -1.9170    30.6680 c3         1 W0C      -0.089100
     15 C10         25.9620     5.0240    31.2520 ca         1 W0C       0.273900
     16 H1          26.2700     2.8670    30.0710 hn         1 W0C       0.145000
     17 H2          23.1360     3.3490    32.0490 ha         1 W0C       0.157000
     18 H3          22.8100     5.4780    33.3010 ha         1 W0C       0.124000
     19 H4          24.5560     7.2450    33.1720 h4         1 W0C       0.021100
     20 H5          25.1220    -2.5190    28.7960 hc         1 W0C       0.048950
     21 H6          26.4580    -1.4000    28.6200 hc         1 W0C       0.048950
     22 H7          24.3550     0.0170    25.6500 hc         1 W0C       0.034700
     23 H8          25.4700     0.8120    26.7580 hc         1 W0C       0.034700
     24 H9          25.6040    -0.9250    26.4630 hc         1 W0C       0.034700
     25 H10         23.1830     0.4370    27.7790 hc         1 W0C       0.048950
     26 H11         23.3720    -1.2920    27.5490 hc         1 W0C       0.048950
     27 H12         23.7770    -0.6520    29.8490 h1         1 W0C       0.082700
     28 H13         26.1350     0.9580    29.1660 hn         1 W0C       0.306500
     29 H14         26.7370    -2.7320    30.7010 hc         1 W0C       0.034700
     30 H15         26.4740    -1.0390    31.1240 hc         1 W0C       0.034700
     31 H16         25.1550    -2.2010    31.2820 hc         1 W0C       0.034700
     32 H17         26.8770     4.9250    30.6750 h4         1 W0C       0.010100
@<TRIPOS>BOND
     1     1     7 1   
     2     1     8 1   
     3     1    16 1   
     4     2     3 ar  
     5     2     8 ar  
     6     2    17 1   
     7     3     5 ar  
     8     3    18 1   
     9     4     5 ar  
    10     4    15 ar  
    11     5    19 1   
    12     6    11 1   
    13     6    14 1   
    14     6    20 1   
    15     6    21 1   
    16     7    12 2   
    17     7    13 1   
    18     8    15 ar  
    19     9    10 1   
    20     9    22 1   
    21     9    23 1   
    22     9    24 1   
    23    10    11 1   
    24    10    25 1   
    25    10    26 1   
    26    11    13 1   
    27    11    27 1   
    28    13    28 1   
    29    14    29 1   
    30    14    30 1   
    31    14    31 1   
    32    15    32 1   
@<TRIPOS>SUBSTRUCTURE
     1 W0C         1 TEMP              0 ****  ****    0 ROOT
