@<TRIPOS>MOLECULE
W0D
   29    31     1     0     0
SMALL
abcg2


@<TRIPOS>ATOM
      1 N1          -5.7890    14.3630     1.5760 na         1 W0D      -0.308600
      2 C4          -3.5390    15.1040     0.6930 ca         1 W0D      -0.117000
      3 C5          -2.9700    15.6380    -0.4520 ca         1 W0D      -0.093000
      4 C6          -3.7430    15.9310    -1.5860 ca         1 W0D      -0.137000
      5 C7          -5.1070    15.6970    -1.6100 ca         1 W0D      -0.046000
      6 C8          -5.6970    15.1550    -0.4690 ca         1 W0D       0.071400
      7 C10         -8.5540    16.6390     5.7770 cc         1 W0D      -0.096000
      8 O           -8.4610    16.3100     2.8350 o          1 W0D      -0.563100
      9 C           -8.3610    15.3420     3.5750 c          1 W0D       0.531600
     10 C9          -8.3930    15.5140     5.0320 cd         1 W0D       0.045500
     11 O1          -8.2520    14.4400     5.8410 os         1 W0D      -0.247000
     12 C12         -8.3220    14.8790     7.1080 cd         1 W0D       0.145900
     13 C11         -8.5080    16.2220     7.1350 cc         1 W0D      -0.198000
     14 N           -8.2130    14.0860     3.1150 ns         1 W0D      -0.516900
     15 C2          -7.0170    14.3620     1.0000 cc         1 W0D       0.401800
     16 N2          -7.0100    14.8270    -0.2180 nd         1 W0D      -0.564100
     17 C3          -4.9080    14.8710     0.6580 ca         1 W0D      -0.076200
     18 H1          -5.5700    14.0460     2.5070 hn         1 W0D       0.356000
     19 H2          -2.9420    14.8770     1.5660 ha         1 W0D       0.115000
     20 H3          -1.9060    15.8330    -0.4720 ha         1 W0D       0.111000
     21 H4          -3.2580    16.3490    -2.4590 ha         1 W0D       0.113000
     22 H5          -5.6990    15.9270    -2.4870 ha         1 W0D       0.128000
     23 H6          -8.6900    17.6400     5.4040 ha         1 W0D       0.162000
     24 H7          -8.2230    14.1360     7.8830 h4         1 W0D       0.056100
     25 H8          -8.6030    16.8380     8.0140 ha         1 W0D       0.149000
     26 H9          -8.1760    13.3050     3.7490 hn         1 W0D       0.332500
     27 H10         -9.1110    14.2110     1.2150 h1         1 W0D       0.077200
     28 H11         -8.2420    12.7300     1.5790 h1         1 W0D       0.077200
     29 C1          -8.2180    13.8140     1.7000 c3         1 W0D       0.090700
@<TRIPOS>BOND
     1     1    15 1   
     2     1    17 1   
     3     1    18 1   
     4     2     3 ar  
     5     2    17 ar  
     6     2    19 1   
     7     3     4 ar  
     8     3    20 1   
     9     4     5 ar  
    10     4    21 1   
    11     5     6 ar  
    12     5    22 1   
    13     6    16 1   
    14     6    17 ar  
    15     7    10 2   
    16     7    13 1   
    17     7    23 1   
    18     8     9 2   
    19     9    10 1   
    20     9    14 1   
    21    10    11 1   
    22    11    12 1   
    23    12    13 2   
    24    12    24 1   
    25    13    25 1   
    26    14    26 1   
    27    14    29 1   
    28    15    16 2   
    29    15    29 1   
    30    27    29 1   
    31    28    29 1   
@<TRIPOS>SUBSTRUCTURE
     1 W0D         1 TEMP              0 ****  ****    0 ROOT
