@<TRIPOS>MOLECULE
W0D
   29    31     1     0     0
SMALL
No Charge or Current Charge


@<TRIPOS>ATOM
      1 N1          -5.7500    14.4960     1.5450 na         1 W0D      -0.308600
      2 C4          -3.5260    15.2240     0.6550 ca         1 W0D      -0.117000
      3 C5          -2.8940    15.6690    -0.5250 ca         1 W0D      -0.093000
      4 C6          -3.6380    15.8080    -1.7230 ca         1 W0D      -0.137000
      5 C7          -5.0180    15.5050    -1.7480 ca         1 W0D      -0.046000
      6 C8          -5.6240    15.0650    -0.5620 ca         1 W0D       0.071400
      7 C10         -8.6040    16.5830     5.9310 cc         1 W0D      -0.096000
      8 O           -8.5810    16.4470     2.9450 o          1 W0D      -0.563100
      9 C           -8.4510    15.4560     3.6500 c          1 W0D       0.531600
     10 C9          -8.4550    15.4740     5.1420 cd         1 W0D       0.045500
     11 O1          -8.3020    14.3270     5.8980 os         1 W0D      -0.247000
     12 C12         -8.3620    14.7690     7.2010 cd         1 W0D       0.145900
     13 C11         -8.5430    16.1250     7.2610 cc         1 W0D      -0.198000
     14 N           -8.2810    14.1940     3.1210 ns         1 W0D      -0.516900
     15 C2          -7.0050    14.3730     0.9500 cc         1 W0D       0.401800
     16 N2          -6.9560    14.7120    -0.3560 nd         1 W0D      -0.564100
     17 C3          -4.8940    14.9350     0.5840 ca         1 W0D      -0.076200
     18 H1          -5.5340    14.2960     2.5130 hn         1 W0D       0.356000
     19 H2          -2.9700    15.1110     1.5830 ha         1 W0D       0.115000
     20 H3          -1.8320    15.9040    -0.5160 ha         1 W0D       0.111000
     21 H4          -3.1440    16.1510    -2.6290 ha         1 W0D       0.113000
     22 H5          -5.5970    15.6080    -2.6620 ha         1 W0D       0.128000
     23 H6          -8.7410    17.6120     5.6070 ha         1 W0D       0.162000
     24 H7          -8.2630    14.0320     7.9880 h4         1 W0D       0.056100
     25 H8          -8.6260    16.7370     8.1540 ha         1 W0D       0.149000
     26 H9          -8.1960    13.4320     3.7870 hn         1 W0D       0.332500
     27 H10         -9.1260    14.3440     1.2010 h1         1 W0D       0.077200
     28 H11         -8.3220    12.8060     1.5420 h1         1 W0D       0.077200
     29 C1          -8.2450    13.8920     1.6750 c3         1 W0D       0.090700
@<TRIPOS>BOND
     1     1    15 1   
     2     1    17 1   
     3     1    18 1   
     4     2     3 ar  
     5     2    17 ar  
     6     2    19 1   
     7     3     4 ar  
     8     3    20 1   
     9     4     5 ar  
    10     4    21 1   
    11     5     6 ar  
    12     5    22 1   
    13     6    16 1   
    14     6    17 ar  
    15     7    10 2   
    16     7    13 1   
    17     7    23 1   
    18     8     9 2   
    19     9    10 1   
    20     9    14 1   
    21    10    11 1   
    22    11    12 1   
    23    12    13 2   
    24    12    24 1   
    25    13    25 1   
    26    14    26 1   
    27    14    29 1   
    28    15    16 2   
    29    15    29 1   
    30    27    29 1   
    31    28    29 1   
@<TRIPOS>SUBSTRUCTURE
     1 W0D         1 TEMP              0 ****  ****    0 ROOT
