@<TRIPOS>MOLECULE
W0E
   18    18     1     0     0
SMALL
No Charge or Current Charge


@<TRIPOS>ATOM
      1 C01        -24.8620    13.5220    24.0320 c3         1 W0E      -0.050800
      2 C02        -23.3710    13.3810    24.2960 ca         1 W0E      -0.001300
      3 C03        -22.4340    13.8670    23.3660 ca         1 W0E      -0.190000
      4 C04        -21.0600    13.7320    23.6120 ca         1 W0E       0.178100
      5 C05        -20.6090    13.1100    24.7830 ca         1 W0E      -0.281000
      6 C06        -21.5370    12.6230    25.7070 ca         1 W0E       0.331000
      7 C07        -22.9110    12.7550    25.4690 ca         1 W0E      -0.216000
      8 N08        -21.0960    12.0160    26.8450 nv         1 W0E      -1.073000
      9 O09        -20.1630    14.2070    22.7070 oh         1 W0E      -0.536100
     10 H011       -25.2470    12.6490    23.4930 hc         1 W0E       0.043367
     11 H012       -25.4260    13.6150    24.9680 hc         1 W0E       0.043367
     12 H013       -25.0780    14.4120    23.4280 hc         1 W0E       0.043367
     13 H031       -22.7710    14.3500    22.4530 ha         1 W0E       0.127000
     14 H051       -19.5450    13.0050    24.9740 ha         1 W0E       0.110000
     15 H071       -23.6250    12.3730    26.1930 ha         1 W0E       0.112000
     16 H081       -21.7580    11.5180    27.4360 hn         1 W0E       0.448000
     17 H082       -20.1110    11.7780    26.9370 hn         1 W0E       0.448000
     18 H091       -19.2620    14.0230    23.0490 ho         1 W0E       0.462000
@<TRIPOS>BOND
     1     1     2 1   
     2     1    10 1   
     3     1    11 1   
     4     1    12 1   
     5     2     3 ar  
     6     2     7 ar  
     7     3     4 ar  
     8     3    13 1   
     9     4     5 ar  
    10     4     9 1   
    11     5     6 ar  
    12     5    14 1   
    13     6     7 ar  
    14     6     8 1   
    15     7    15 1   
    16     8    16 1   
    17     8    17 1   
    18     9    18 1   
@<TRIPOS>SUBSTRUCTURE
     1 W0E         1 TEMP              0 ****  ****    0 ROOT
