@<TRIPOS>MOLECULE
W0E
   18    18     1     0     0
SMALL
abcg2


@<TRIPOS>ATOM
      1 C01        -24.8230    13.5140    24.0330 c3         1 W0E      -0.050800
      2 C02        -23.3510    13.3950    24.3090 ca         1 W0E      -0.001300
      3 C03        -22.4310    13.8670    23.3780 ca         1 W0E      -0.190000
      4 C04        -21.0680    13.7200    23.6260 ca         1 W0E       0.178100
      5 C05        -20.6200    13.1100    24.7920 ca         1 W0E      -0.281000
      6 C06        -21.5400    12.6400    25.7340 ca         1 W0E       0.331000
      7 C07        -22.9090    12.7880    25.4780 ca         1 W0E      -0.216000
      8 N08        -21.1030    12.0910    26.9200 nv         1 W0E      -1.073000
      9 O09        -20.2110    14.1900    22.6950 oh         1 W0E      -0.536100
     10 H011       -25.1790    12.6580    23.4550 hc         1 W0E       0.043367
     11 H012       -25.4030    13.5440    24.9550 hc         1 W0E       0.043367
     12 H013       -25.0520    14.4090    23.4570 hc         1 W0E       0.043367
     13 H031       -22.7640    14.3470    22.4660 ha         1 W0E       0.127000
     14 H051       -19.5560    13.0030    24.9780 ha         1 W0E       0.110000
     15 H071       -23.6300    12.4290    26.2040 ha         1 W0E       0.112000
     16 H081       -21.7550    11.4800    27.3840 hn         1 W0E       0.448000
     17 H082       -20.1720    11.7050    26.9090 hn         1 W0E       0.448000
     18 H091       -19.3000    14.0450    22.9740 ho         1 W0E       0.462000
@<TRIPOS>BOND
     1     1     2 1   
     2     1    10 1   
     3     1    11 1   
     4     1    12 1   
     5     2     3 ar  
     6     2     7 ar  
     7     3     4 ar  
     8     3    13 1   
     9     4     5 ar  
    10     4     9 1   
    11     5     6 ar  
    12     5    14 1   
    13     6     7 ar  
    14     6     8 1   
    15     7    15 1   
    16     8    16 1   
    17     8    17 1   
    18     9    18 1   
@<TRIPOS>SUBSTRUCTURE
     1 W0E         1 TEMP              0 ****  ****    0 ROOT
