@<TRIPOS>MOLECULE
W0G
   28    29     1     0     0
SMALL
No Charge or Current Charge


@<TRIPOS>ATOM
      1 N1          21.0840    45.0110    10.6870 n          1 W0G      -0.255400
      2 C4          20.2990    44.5790    11.7750 c          1 W0G       0.568000
      3 C5          21.2000    46.3820    10.2280 ca         1 W0G      -0.080000
      4 C6          21.1340    47.4480    11.1560 ca         1 W0G      -0.071000
      5 C7          21.0960    48.7850    10.7230 ca         1 W0G      -0.123000
      6 C8          21.0670    49.0840     9.3530 ca         1 W0G      -0.080000
      7 C10         21.0940    46.7020     8.8490 ca         1 W0G       0.172000
      8 F           21.0220    45.7300     7.9120 f          1 W0G      -0.173000
      9 C9          21.0540    48.0390     8.4180 ca         1 W0G      -0.149000
     10 C3          21.7840    43.8990    10.0080 c5         1 W0G       0.112000
     11 C2          21.9160    42.8540    11.1510 c5         1 W0G      -0.130400
     12 O           19.5720    45.2860    12.4670 o          1 W0G      -0.506000
     13 C1          20.5690    43.0460    11.9030 c5         1 W0G       0.085500
     14 N           20.7360    42.5100    13.3040 n7         1 W0G      -0.832400
     15 C           20.8580    41.0440    13.4430 c3         1 W0G       0.146100
     16 H1          21.1530    47.2490    12.2240 ha         1 W0G       0.126000
     17 H2          21.0810    49.5910    11.4540 ha         1 W0G       0.121000
     18 H3          21.0330    50.1190     9.0190 ha         1 W0G       0.119000
     19 H4          20.9970    48.2610     7.3550 ha         1 W0G       0.133000
     20 H5          21.1760    43.5060     9.1820 h1         1 W0G       0.051700
     21 H6          22.7610    44.2030     9.6110 h1         1 W0G       0.051700
     22 H7          22.0590    41.8360    10.7720 hc         1 W0G       0.057200
     23 H8          22.7750    43.0970    11.7870 hc         1 W0G       0.057200
     24 H9          19.7480    42.5410    11.3720 h1         1 W0G       0.087700
     25 H10         21.5490    42.9530    13.7550 hn         1 W0G       0.417000
     26 H12         20.8960    40.7600    14.5030 h1         1 W0G       0.032033
     27 H13         19.9980    40.5350    12.9860 h1         1 W0G       0.032033
     28 H14         21.7720    40.6730    12.9610 h1         1 W0G       0.032033
@<TRIPOS>BOND
     1     1     2 1   
     2     1     3 1   
     3     1    10 1   
     4     2    12 2   
     5     2    13 1   
     6     3     4 ar  
     7     3     7 ar  
     8     4     5 ar  
     9     4    16 1   
    10     5     6 ar  
    11     5    17 1   
    12     6     9 ar  
    13     6    18 1   
    14     7     8 1   
    15     7     9 ar  
    16     9    19 1   
    17    10    11 1   
    18    10    20 1   
    19    10    21 1   
    20    11    13 1   
    21    11    22 1   
    22    11    23 1   
    23    13    14 1   
    24    13    24 1   
    25    14    15 1   
    26    14    25 1   
    27    15    26 1   
    28    15    27 1   
    29    15    28 1   
@<TRIPOS>SUBSTRUCTURE
     1 W0G         1 TEMP              0 ****  ****    0 ROOT
