@<TRIPOS>MOLECULE
W0G
   28    29     1     0     0
SMALL
bcc


@<TRIPOS>ATOM
      1 N1          21.2660    45.0490    10.8010 n          1 W0G      -0.415000
      2 C4          20.3510    44.4840    11.6220 c          1 W0G       0.710500
      3 C5          21.1480    46.3650    10.3160 ca         1 W0G       0.012600
      4 C6          21.6640    47.4440    11.0220 ca         1 W0G      -0.089000
      5 C7          21.5420    48.7340    10.5250 ca         1 W0G      -0.141000
      6 C8          20.9030    48.9500     9.3110 ca         1 W0G      -0.098000
      7 C10         20.5080    46.6110     9.1090 ca         1 W0G       0.136900
      8 F           19.9980    45.5720     8.4360 f          1 W0G      -0.137900
      9 C9          20.3800    47.8840     8.5910 ca         1 W0G      -0.167000
     10 C3          22.2780    44.1170    10.3160 c5         1 W0G       0.112000
     11 C2          22.1900    42.9800    11.3300 c5         1 W0G      -0.130400
     12 O           19.4010    45.0540    12.1180 o          1 W0G      -0.581500
     13 C1          20.7230    43.0140    11.7770 c5         1 W0G       0.085500
     14 N           20.3800    42.5050    13.0760 n7         1 W0G      -0.777200
     15 C           20.5510    41.0710    13.1960 c3         1 W0G       0.146100
     16 H1          22.1660    47.2600    11.9630 ha         1 W0G       0.144000
     17 H2          21.9440    49.5680    11.0840 ha         1 W0G       0.139000
     18 H3          20.8070    49.9530     8.9180 ha         1 W0G       0.137000
     19 H4          19.8770    48.0390     7.6460 ha         1 W0G       0.151000
     20 H5          22.0420    43.7790     9.3040 h1         1 W0G       0.051700
     21 H6          23.2570    44.5960    10.2930 h1         1 W0G       0.051700
     22 H7          22.4920    42.0270    10.9010 hc         1 W0G       0.057200
     23 H8          22.8380    43.1910    12.1840 hc         1 W0G       0.057200
     24 H9          20.1180    42.4730    11.0360 h1         1 W0G       0.087700
     25 H10         20.9300    42.9730    13.7850 hn         1 W0G       0.361800
     26 H12         20.2860    40.7580    14.2050 h1         1 W0G       0.032033
     27 H13         19.8760    40.5620    12.5050 h1         1 W0G       0.032033
     28 H14         21.5670    40.7090    12.9910 h1         1 W0G       0.032033
@<TRIPOS>BOND
     1     1     2 1   
     2     1     3 1   
     3     1    10 1   
     4     2    12 2   
     5     2    13 1   
     6     3     4 ar  
     7     3     7 ar  
     8     4     5 ar  
     9     4    16 1   
    10     5     6 ar  
    11     5    17 1   
    12     6     9 ar  
    13     6    18 1   
    14     7     8 1   
    15     7     9 ar  
    16     9    19 1   
    17    10    11 1   
    18    10    20 1   
    19    10    21 1   
    20    11    13 1   
    21    11    22 1   
    22    11    23 1   
    23    13    14 1   
    24    13    24 1   
    25    14    15 1   
    26    14    25 1   
    27    15    26 1   
    28    15    27 1   
    29    15    28 1   
@<TRIPOS>SUBSTRUCTURE
     1 W0G         1 TEMP              0 ****  ****    0 ROOT
