@<TRIPOS>MOLECULE
W0H
   30    30     1     0     0
SMALL
No Charge or Current Charge


@<TRIPOS>ATOM
      1 C7          11.4380     0.5550   -12.5760 ca         1 W0H      -0.111000
      2 C8          10.7010    -0.6330   -12.4470 ca         1 W0H       0.129000
      3 C9           9.8320    -0.8130   -11.3590 ca         1 W0H      -0.111000
      4 O1          11.2950     0.8460    -7.4630 o          1 W0H      -0.577100
      5 C1           7.7060     1.3540    -4.4160 c3         1 W0H       0.138600
      6 C5          10.4400     1.3980   -10.5130 ca         1 W0H       0.129100
      7 C6          11.3050     1.5680   -11.6100 ca         1 W0H      -0.134500
      8 C4           9.5780     2.3420    -8.3780 c3         1 W0H       0.081600
      9 C3          10.2050     1.3830    -7.3260 c          1 W0H       0.566100
     10 C2           8.1430     1.6680    -5.8700 c3         1 W0H       0.074000
     11 F           10.8280    -1.6070   -13.3740 f          1 W0H      -0.186000
     12 C10          9.6970     0.2010   -10.3910 ca         1 W0H      -0.134500
     13 O2          10.3500     2.4340    -9.6020 os         1 W0H      -0.322100
     14 N            9.4760     1.1360    -6.1820 ns         1 W0H      -0.512900
     15 O            7.8690    -0.0570    -4.1350 os         1 W0H      -0.459000
     16 C            6.9790    -0.9480    -4.8370 c3         1 W0H       0.137900
     17 H1          12.1080     0.6880   -13.4220 ha         1 W0H       0.132000
     18 H2           9.2630    -1.7350   -11.2680 ha         1 W0H       0.132000
     19 H3           8.3310     1.9420    -3.7320 h1         1 W0H       0.059700
     20 H4           6.6650     1.6700    -4.2670 h1         1 W0H       0.059700
     21 H5          11.8740     2.4890   -11.7090 ha         1 W0H       0.124500
     22 H6           9.5180     3.3290    -7.9050 h1         1 W0H       0.067200
     23 H7           8.5510     2.0210    -8.5860 h1         1 W0H       0.067200
     24 H8           8.1510     2.7580    -6.0040 h1         1 W0H       0.043200
     25 H9           7.4150     1.2470    -6.5760 h1         1 W0H       0.043200
     26 H10          9.0150     0.0380    -9.5620 ha         1 W0H       0.124500
     27 H11          9.8960     0.4920    -5.5200 hn         1 W0H       0.334500
     28 H12          7.1280    -1.9800    -4.4950 h1         1 W0H       0.035033
     29 H13          5.9300    -0.6790    -4.6540 h1         1 W0H       0.035033
     30 H14          7.1620    -0.9240    -5.9180 h1         1 W0H       0.035033
@<TRIPOS>BOND
     1     1     2 ar  
     2     1     7 ar  
     3     1    17 1   
     4     2     3 ar  
     5     2    11 1   
     6     3    12 ar  
     7     3    18 1   
     8     4     9 2   
     9     5    10 1   
    10     5    15 1   
    11     5    19 1   
    12     5    20 1   
    13     6     7 ar  
    14     6    12 ar  
    15     6    13 1   
    16     7    21 1   
    17     8     9 1   
    18     8    13 1   
    19     8    22 1   
    20     8    23 1   
    21     9    14 1   
    22    10    14 1   
    23    10    24 1   
    24    10    25 1   
    25    12    26 1   
    26    14    27 1   
    27    15    16 1   
    28    16    28 1   
    29    16    29 1   
    30    16    30 1   
@<TRIPOS>SUBSTRUCTURE
     1 W0H         1 TEMP              0 ****  ****    0 ROOT
