@<TRIPOS>MOLECULE
W0H
   30    30     1     0     0
SMALL
abcg2


@<TRIPOS>ATOM
      1 C7          11.4310     0.6630   -12.5520 ca         1 W0H      -0.111000
      2 C8          10.6840    -0.4990   -12.4630 ca         1 W0H       0.129000
      3 C9           9.8410    -0.7490   -11.4000 ca         1 W0H      -0.111000
      4 O1          11.3190     0.7740    -7.4860 o          1 W0H      -0.577100
      5 C1           7.7340     1.3770    -4.5580 c3         1 W0H       0.138600
      6 C5          10.4770     1.3740   -10.4500 ca         1 W0H       0.129100
      7 C6          11.3220     1.6020   -11.5370 ca         1 W0H      -0.134500
      8 C4           9.6100     2.2250    -8.3840 c3         1 W0H       0.081600
      9 C3          10.2070     1.2780    -7.3400 c          1 W0H       0.566100
     10 C2           8.0950     1.5660    -6.0240 c3         1 W0H       0.074000
     11 F           10.7900    -1.4250   -13.4560 f          1 W0H      -0.186000
     12 C10          9.7350     0.1960   -10.3800 ca         1 W0H      -0.134500
     13 O2          10.4360     2.3740    -9.5180 os         1 W0H      -0.322100
     14 N            9.4430     1.0630    -6.2570 ns         1 W0H      -0.512900
     15 O            7.9070     0.0400    -4.1080 os         1 W0H      -0.459000
     16 C            6.9460    -0.8740    -4.6240 c3         1 W0H       0.137900
     17 H1          12.0840     0.8280   -13.3980 ha         1 W0H       0.132000
     18 H2           9.2770    -1.6710   -11.3580 ha         1 W0H       0.132000
     19 H3           8.3940     1.9840    -3.9370 h1         1 W0H       0.059700
     20 H4           6.7000     1.7070    -4.4000 h1         1 W0H       0.059700
     21 H5          11.8920     2.5210   -11.5750 ha         1 W0H       0.124500
     22 H6           9.5260     3.2200    -7.9450 h1         1 W0H       0.067200
     23 H7           8.6030     1.9030    -8.6610 h1         1 W0H       0.067200
     24 H8           8.0400     2.6340    -6.2430 h1         1 W0H       0.043200
     25 H9           7.3750     1.0570    -6.6700 h1         1 W0H       0.043200
     26 H10          9.0860    -0.0130    -9.5440 ha         1 W0H       0.124500
     27 H11          9.7960     0.3940    -5.5850 hn         1 W0H       0.334500
     28 H12          7.1170    -1.8270    -4.1280 h1         1 W0H       0.035033
     29 H13          5.9280    -0.5290    -4.4100 h1         1 W0H       0.035033
     30 H14          7.0530    -1.0120    -5.7040 h1         1 W0H       0.035033
@<TRIPOS>BOND
     1     1     2 ar  
     2     1     7 ar  
     3     1    17 1   
     4     2     3 ar  
     5     2    11 1   
     6     3    12 ar  
     7     3    18 1   
     8     4     9 2   
     9     5    10 1   
    10     5    15 1   
    11     5    19 1   
    12     5    20 1   
    13     6     7 ar  
    14     6    12 ar  
    15     6    13 1   
    16     7    21 1   
    17     8     9 1   
    18     8    13 1   
    19     8    22 1   
    20     8    23 1   
    21     9    14 1   
    22    10    14 1   
    23    10    24 1   
    24    10    25 1   
    25    12    26 1   
    26    14    27 1   
    27    15    16 1   
    28    16    28 1   
    29    16    29 1   
    30    16    30 1   
@<TRIPOS>SUBSTRUCTURE
     1 W0H         1 TEMP              0 ****  ****    0 ROOT
