@<TRIPOS>MOLECULE
W0I
   42    43     1     0     0
SMALL
No Charge or Current Charge


@<TRIPOS>ATOM
      1 CAA         -8.3880     0.8640     0.9450 c3         1 W0I      -0.089100
      2 FAC         -0.6680     1.9310    -0.8510 f          1 W0I      -0.178000
      3 CAD          6.1900     1.6280    -0.3930 ca         1 W0I      -0.128000
      4 CAE          6.0360     1.4660     0.9950 ca         1 W0I      -0.089000
      5 CAF          5.2520     1.0660    -1.2770 ca         1 W0I      -0.089000
      6 CAG          4.9400     0.7440     1.5000 ca         1 W0I      -0.139500
      7 CAH          4.1550     0.3450    -0.7720 ca         1 W0I      -0.139500
      8 CAI         -0.3980    -1.6360    -0.0170 ca         1 W0I      -0.168000
      9 CAJ          1.1250     0.7260     0.1300 ca         1 W0I      -0.160000
     10 CAK         -7.3360     0.4580    -0.1040 c3         1 W0I      -0.074400
     11 CAL         -5.8980     0.4330     0.4590 c3         1 W0I      -0.075400
     12 CAM         -4.8440     0.0260    -0.5940 c3         1 W0I      -0.075400
     13 CAN         -3.4060     0.0010    -0.0300 c3         1 W0I      -0.072400
     14 CAO         -2.3490    -0.4050    -1.0790 c3         1 W0I      -0.025100
     15 OAP          2.9350    -0.5190     1.1410 os         1 W0I      -0.233200
     16 CAQ          0.8980    -1.6720     0.5290 ca         1 W0I       0.114100
     17 CAR         -0.1680     0.7540    -0.4130 ca         1 W0I       0.154000
     18 CAS          3.9930     0.1930     0.6200 ca         1 W0I       0.115100
     19 CAT         -0.9390    -0.4250    -0.4960 ca         1 W0I      -0.086300
     20 CAU          1.6680    -0.4870     0.5930 ca         1 W0I       0.106100
     21 H1AA        -9.3900     0.8680     0.5000 hc         1 W0I       0.031700
     22 H2AA        -8.3890     0.1610     1.7860 hc         1 W0I       0.031700
     23 H3AA        -8.1810     1.8690     1.3330 hc         1 W0I       0.031700
     24 HOAB         0.7240    -3.5580     0.8600 ho         1 W0I       0.462000
     25 HAD          7.0380     2.1860    -0.7840 ha         1 W0I       0.116000
     26 HAE          6.7650     1.8970     1.6780 ha         1 W0I       0.115000
     27 HAF          5.3760     1.1870    -2.3510 ha         1 W0I       0.115000
     28 HAG          4.8200     0.6160     2.5730 ha         1 W0I       0.127000
     29 HAH          3.4390    -0.0970    -1.4610 ha         1 W0I       0.127000
     30 HAI         -0.9910    -2.5470    -0.0690 ha         1 W0I       0.119000
     31 HAJ          1.6980     1.6470     0.1940 ha         1 W0I       0.148000
     32 H1AK        -7.5900    -0.5340    -0.4980 hc         1 W0I       0.036200
     33 H2AK        -7.3840     1.1590    -0.9470 hc         1 W0I       0.036200
     34 H1AL        -5.6490     1.4260     0.8530 hc         1 W0I       0.038700
     35 H2AL        -5.8540    -0.2670     1.3020 hc         1 W0I       0.038700
     36 H1AM        -5.0930    -0.9670    -0.9880 hc         1 W0I       0.037700
     37 H2AM        -4.8880     0.7260    -1.4370 hc         1 W0I       0.037700
     38 H1AN        -3.1560     0.9930     0.3660 hc         1 W0I       0.045200
     39 H2AN        -3.3600    -0.7000     0.8130 hc         1 W0I       0.045200
     40 H1AO        -2.6050    -1.3930    -1.4810 hc         1 W0I       0.051700
     41 H2AO        -2.3980     0.2870    -1.9290 hc         1 W0I       0.051700
     42 OAB          1.4010    -2.8600     0.9880 oh         1 W0I      -0.509100
@<TRIPOS>BOND
     1     1    10 1   
     2     1    21 1   
     3     1    22 1   
     4     1    23 1   
     5     2    17 1   
     6     3     4 ar  
     7     3     5 ar  
     8     3    25 1   
     9     4     6 ar  
    10     4    26 1   
    11     5     7 ar  
    12     5    27 1   
    13     6    18 ar  
    14     6    28 1   
    15     7    18 ar  
    16     7    29 1   
    17     8    16 ar  
    18     8    19 ar  
    19     8    30 1   
    20     9    17 ar  
    21     9    20 ar  
    22     9    31 1   
    23    10    11 1   
    24    10    32 1   
    25    10    33 1   
    26    11    12 1   
    27    11    34 1   
    28    11    35 1   
    29    12    13 1   
    30    12    36 1   
    31    12    37 1   
    32    13    14 1   
    33    13    38 1   
    34    13    39 1   
    35    14    19 1   
    36    14    40 1   
    37    14    41 1   
    38    15    18 1   
    39    15    20 1   
    40    16    20 ar  
    41    16    42 1   
    42    17    19 ar  
    43    24    42 1   
@<TRIPOS>SUBSTRUCTURE
     1 W0I         1 TEMP              0 ****  ****    0 ROOT
