@<TRIPOS>MOLECULE
W0I
   42    43     1     0     0
SMALL
bcc


@<TRIPOS>ATOM
      1 CAA         -8.3010     0.9210     0.9050 c3         1 W0I      -0.089100
      2 FAC         -0.7590     1.8880    -0.7010 f          1 W0I      -0.142900
      3 CAD          6.0830     1.5950    -0.4030 ca         1 W0I      -0.146000
      4 CAE          5.8910     1.4970     0.9690 ca         1 W0I      -0.107000
      5 CAF          5.1810     0.9860    -1.2650 ca         1 W0I      -0.107000
      6 CAG          4.8010     0.8060     1.4790 ca         1 W0I      -0.157500
      7 CAH          4.0920     0.2830    -0.7690 ca         1 W0I      -0.157500
      8 CAI         -0.3400    -1.6320    -0.0710 ca         1 W0I      -0.186000
      9 CAJ          1.0610     0.7330     0.2030 ca         1 W0I      -0.178000
     10 CAK         -7.2570     0.5030    -0.1210 c3         1 W0I      -0.074400
     11 CAL         -5.8500     0.4320     0.4580 c3         1 W0I      -0.075400
     12 CAM         -4.8000     0.0150    -0.5640 c3         1 W0I      -0.075400
     13 CAN         -3.3900    -0.0230     0.0110 c3         1 W0I      -0.072400
     14 CAO         -2.3470    -0.4360    -1.0300 c3         1 W0I      -0.025100
     15 OAP          2.8840    -0.5190     1.1590 os         1 W0I      -0.233200
     16 CAQ          0.9450    -1.6630     0.4550 ca         1 W0I       0.114100
     17 CAR         -0.2130     0.7150    -0.3260 ca         1 W0I       0.118900
     18 CAS          3.9080     0.1990     0.6060 ca         1 W0I       0.115100
     19 CAT         -0.9490    -0.4480    -0.4810 ca         1 W0I      -0.086300
     20 CAU          1.6450    -0.4630     0.5920 ca         1 W0I       0.106100
     21 H1AA        -9.2970     0.9760     0.4640 hc         1 W0I       0.031700
     22 H2AA        -8.3480     0.2120     1.7340 hc         1 W0I       0.031700
     23 H3AA        -8.0720     1.9020     1.3260 hc         1 W0I       0.031700
     24 HOAB         0.9820    -3.5520     0.7040 ho         1 W0I       0.423000
     25 HAD          6.9320     2.1390    -0.7980 ha         1 W0I       0.134000
     26 HAE          6.5880     1.9680     1.6500 ha         1 W0I       0.133000
     27 HAF          5.3250     1.0510    -2.3360 ha         1 W0I       0.133000
     28 HAG          4.6440     0.7320     2.5480 ha         1 W0I       0.145000
     29 HAH          3.4000    -0.1970    -1.4500 ha         1 W0I       0.145000
     30 HAI         -0.8850    -2.5630    -0.1870 ha         1 W0I       0.137000
     31 HAJ          1.5930     1.6700     0.3120 ha         1 W0I       0.166000
     32 H1AK        -7.5270    -0.4710    -0.5390 hc         1 W0I       0.036200
     33 H2AK        -7.2680     1.2060    -0.9600 hc         1 W0I       0.036200
     34 H1AL        -5.5800     1.4100     0.8740 hc         1 W0I       0.038700
     35 H2AL        -5.8400    -0.2690     1.3000 hc         1 W0I       0.038700
     36 H1AM        -5.0570    -0.9710    -0.9670 hc         1 W0I       0.037700
     37 H2AM        -4.8240     0.7070    -1.4120 hc         1 W0I       0.037700
     38 H1AN        -3.1350     0.9620     0.4130 hc         1 W0I       0.045200
     39 H2AN        -3.3530    -0.7190     0.8540 hc         1 W0I       0.045200
     40 H1AO        -2.5890    -1.4340    -1.4040 hc         1 W0I       0.051700
     41 H2AO        -2.4050     0.2360    -1.8900 hc         1 W0I       0.051700
     42 OAB          1.5620    -2.7950     0.8450 oh         1 W0I      -0.470100
@<TRIPOS>BOND
     1     1    10 1   
     2     1    21 1   
     3     1    22 1   
     4     1    23 1   
     5     2    17 1   
     6     3     4 ar  
     7     3     5 ar  
     8     3    25 1   
     9     4     6 ar  
    10     4    26 1   
    11     5     7 ar  
    12     5    27 1   
    13     6    18 ar  
    14     6    28 1   
    15     7    18 ar  
    16     7    29 1   
    17     8    16 ar  
    18     8    19 ar  
    19     8    30 1   
    20     9    17 ar  
    21     9    20 ar  
    22     9    31 1   
    23    10    11 1   
    24    10    32 1   
    25    10    33 1   
    26    11    12 1   
    27    11    34 1   
    28    11    35 1   
    29    12    13 1   
    30    12    36 1   
    31    12    37 1   
    32    13    14 1   
    33    13    38 1   
    34    13    39 1   
    35    14    19 1   
    36    14    40 1   
    37    14    41 1   
    38    15    18 1   
    39    15    20 1   
    40    16    20 ar  
    41    16    42 1   
    42    17    19 ar  
    43    24    42 1   
@<TRIPOS>SUBSTRUCTURE
     1 W0I         1 TEMP              0 ****  ****    0 ROOT
