@<TRIPOS>MOLECULE
W0J
   30    31     1     0     0
SMALL
bcc


@<TRIPOS>ATOM
      1 N1          14.5220    38.2360   -21.3680 nh         1 W0J      -0.788300
      2 N3          16.7950    38.2860   -21.6300 nb         1 W0J      -0.416000
      3 C4          14.5860    36.8520   -20.9190 c6         1 W0J       0.230800
      4 C5          13.1970    38.8120   -21.3680 c6         1 W0J       0.225800
      5 C6          15.6130    38.8690   -21.8600 ca         1 W0J       0.638200
      6 C7          15.5330    40.0800   -22.5900 ca         1 W0J      -0.269300
      7 C8          16.7040    40.6300   -23.0250 ca         1 W0J      -0.166300
      8 C1          12.3060    38.1460   -22.4270 c6         1 W0J       0.147500
      9 C3          13.2510    36.1580   -21.2030 c6         1 W0J      -0.094400
     10 C2          12.6880    36.6610   -22.5250 c6         1 W0J      -0.068400
     11 N2          17.9100    38.8240   -22.0720 nb         1 W0J      -0.276000
     12 C9          17.8960    39.9570   -22.7350 ca         1 W0J       0.279200
     13 H1          15.3800    36.3470   -21.4690 h1         1 W0J       0.059200
     14 H2          14.8450    36.7910   -19.8560 h1         1 W0J       0.059200
     15 H3          13.2490    39.8910   -21.4980 h1         1 W0J       0.058700
     16 H4          12.7520    38.6540   -20.3800 h1         1 W0J       0.058700
     17 H5          14.5880    40.5470   -22.8240 ha         1 W0J       0.143000
     18 H6          16.7120    41.5490   -23.5940 ha         1 W0J       0.142000
     19 H7           9.3660    39.6650   -21.8620 h1         1 W0J       0.030367
     20 H8          10.8860    40.1900   -21.1660 h1         1 W0J       0.030367
     21 H9          10.6710    40.2230   -22.9190 h1         1 W0J       0.030367
     22 H12         12.5040    38.6310   -23.3980 h1         1 W0J       0.023700
     23 H13         12.5300    36.3370   -20.4010 hc         1 W0J       0.054200
     24 H14         13.4200    35.0810   -21.2300 hc         1 W0J       0.054200
     25 H15         11.8190    36.0730   -22.8300 hc         1 W0J       0.046700
     26 H16         13.4380    36.5250   -23.3090 hc         1 W0J       0.046700
     27 H17         18.8570    40.3410   -23.0540 h4         1 W0J       0.027100
     28 N           10.9120    38.2790   -22.0410 n7         1 W0J      -0.804200
     29 H10         10.3500    37.7680   -22.7100 hn         1 W0J       0.356800
     30 C           10.4460    39.6520   -22.0070 c3         1 W0J       0.140100
@<TRIPOS>BOND
     1     1     3 1   
     2     1     4 1   
     3     1     5 1   
     4     2     5 ar  
     5     2    11 ar  
     6     3     9 1   
     7     3    13 1   
     8     3    14 1   
     9     4     8 1   
    10     4    15 1   
    11     4    16 1   
    12     5     6 ar  
    13     6     7 ar  
    14     6    17 1   
    15     7    12 ar  
    16     7    18 1   
    17     8    10 1   
    18     8    22 1   
    19     8    28 1   
    20     9    10 1   
    21     9    23 1   
    22     9    24 1   
    23    10    25 1   
    24    10    26 1   
    25    11    12 ar  
    26    12    27 1   
    27    19    30 1   
    28    20    30 1   
    29    21    30 1   
    30    28    29 1   
    31    28    30 1   
@<TRIPOS>SUBSTRUCTURE
     1 W0J         1 TEMP              0 ****  ****    0 ROOT
