@<TRIPOS>MOLECULE
W0J
   30    31     1     0     0
SMALL
No Charge or Current Charge


@<TRIPOS>ATOM
      1 N1          14.5880    38.1620   -21.6970 nh         1 W0J      -0.788300
      2 N3          16.9200    38.4310   -21.4500 nb         1 W0J      -0.416000
      3 C4          14.6630    36.7290   -21.2690 c6         1 W0J       0.230800
      4 C5          13.2390    38.7980   -21.5630 c6         1 W0J       0.225800
      5 C6          15.7560    38.9180   -21.9540 ca         1 W0J       0.572900
      6 C7          15.7500    40.1020   -22.7220 ca         1 W0J      -0.186000
      7 C8          16.9730    40.7720   -22.9320 ca         1 W0J      -0.083000
      8 C1          12.1250    38.0280   -22.3630 c6         1 W0J       0.147500
      9 C3          13.2660    36.0560   -21.1660 c6         1 W0J      -0.094400
     10 C2          12.3590    36.4860   -22.3440 c6         1 W0J      -0.068400
     11 N2          18.0950    39.0700   -21.6500 nb         1 W0J      -0.276000
     12 C9          18.1360    40.2170   -22.3690 ca         1 W0J       0.213900
     13 H1          15.2580    36.1660   -22.0030 h1         1 W0J       0.059200
     14 H2          15.1730    36.6380   -20.2980 h1         1 W0J       0.059200
     15 H3          13.2440    39.8490   -21.8810 h1         1 W0J       0.058700
     16 H4          12.9610    38.8100   -20.4980 h1         1 W0J       0.058700
     17 H5          14.8370    40.4860   -23.1630 ha         1 W0J       0.125000
     18 H6          17.0230    41.6870   -23.5170 ha         1 W0J       0.124000
     19 H7           9.2660    39.8570   -21.6670 h1         1 W0J       0.030367
     20 H8          10.9320    40.4370   -21.4700 h1         1 W0J       0.030367
     21 H9          10.3090    40.0540   -23.0930 h1         1 W0J       0.030367
     22 H12         12.1910    38.3440   -23.4150 h1         1 W0J       0.023700
     23 H13         12.7900    36.3290   -20.2140 hc         1 W0J       0.054200
     24 H14         13.3830    34.9650   -21.1510 hc         1 W0J       0.054200
     25 H15         11.4060    35.9410   -22.3080 hc         1 W0J       0.046700
     26 H16         12.8390    36.1870   -23.2860 hc         1 W0J       0.046700
     27 H17         19.1100    40.6870   -22.4980 h4         1 W0J       0.027100
     28 N           10.7510    38.3500   -21.8890 n7         1 W0J      -0.859400
     29 H10         10.0900    37.7520   -22.4010 hn         1 W0J       0.412000
     30 C           10.2940    39.7470   -22.0380 c3         1 W0J       0.140100
@<TRIPOS>BOND
     1     1     3 1   
     2     1     4 1   
     3     1     5 1   
     4     2     5 ar  
     5     2    11 ar  
     6     3     9 1   
     7     3    13 1   
     8     3    14 1   
     9     4     8 1   
    10     4    15 1   
    11     4    16 1   
    12     5     6 ar  
    13     6     7 ar  
    14     6    17 1   
    15     7    12 ar  
    16     7    18 1   
    17     8    10 1   
    18     8    22 1   
    19     8    28 1   
    20     9    10 1   
    21     9    23 1   
    22     9    24 1   
    23    10    25 1   
    24    10    26 1   
    25    11    12 ar  
    26    12    27 1   
    27    19    30 1   
    28    20    30 1   
    29    21    30 1   
    30    28    29 1   
    31    28    30 1   
@<TRIPOS>SUBSTRUCTURE
     1 W0J         1 TEMP              0 ****  ****    0 ROOT
