@<TRIPOS>MOLECULE
W0K
   16    15     1     0     0
SMALL
abcg2


@<TRIPOS>ATOM
      1 C01        -24.1390    13.2710    25.6340 c3         1 W0K      -0.180100
      2 C02        -22.6590    13.0370    25.4620 c          1 W0K       0.599100
      3 C05        -20.6750    11.9430    26.4110 c3         1 W0K       0.112000
      4 C06        -19.8620    13.0220    27.1190 c3         1 W0K       0.056600
      5 N04        -22.0840    12.2530    26.3940 ns         1 W0K      -0.512900
      6 O03        -22.0330    13.5280    24.5330 o          1 W0K      -0.600100
      7 S07        -18.1090    12.5150    27.1160 sh         1 W0K      -0.452800
      8 H011       -24.6610    12.9680    24.7270 hc         1 W0K       0.060033
      9 H012       -24.5730    12.7370    26.4770 hc         1 W0K       0.060033
     10 H013       -24.3210    14.3370    25.7710 hc         1 W0K       0.060033
     11 H052       -20.5490    10.9870    26.9190 h1         1 W0K       0.068200
     12 H051       -20.3200    11.8160    25.3870 h1         1 W0K       0.068200
     13 H062       -19.9670    13.9750    26.6020 h1         1 W0K       0.066200
     14 H061       -20.2070    13.1400    28.1450 h1         1 W0K       0.066200
     15 H041       -22.6460    11.9090    27.1550 hn         1 W0K       0.312500
     16 H1         -17.6200    13.5830    27.7550 hs         1 W0K       0.216800
@<TRIPOS>BOND
     1     1     2 1   
     2     1     8 1   
     3     1     9 1   
     4     1    10 1   
     5     2     5 1   
     6     2     6 2   
     7     3     4 1   
     8     3     5 1   
     9     3    11 1   
    10     3    12 1   
    11     4     7 1   
    12     4    13 1   
    13     4    14 1   
    14     5    15 1   
    15     7    16 1   
@<TRIPOS>SUBSTRUCTURE
     1 W0K         1 TEMP              0 ****  ****    0 ROOT
