@<TRIPOS>MOLECULE
W0K
   16    15     1     0     0
SMALL
No Charge or Current Charge


@<TRIPOS>ATOM
      1 C01        -24.1650    13.3530    25.6730 c3         1 W0K      -0.180100
      2 C02        -22.6550    13.2290    25.5290 c          1 W0K       0.599100
      3 C05        -20.6510    11.8980    26.2830 c3         1 W0K       0.112000
      4 C06        -19.8390    12.9240    27.1000 c3         1 W0K       0.056600
      5 N04        -22.0870    12.2050    26.2510 ns         1 W0K      -0.512900
      6 O03        -21.9970    13.9790    24.8230 o          1 W0K      -0.600100
      7 S07        -18.0320    12.5210    27.2110 sh         1 W0K      -0.452800
      8 H011       -24.6290    12.3950    25.4120 hc         1 W0K       0.060033
      9 H012       -24.4150    13.4510    26.7360 hc         1 W0K       0.060033
     10 H013       -24.5800    14.1780    25.0820 hc         1 W0K       0.060033
     11 H052       -20.5170    10.9010    26.7230 h1         1 W0K       0.068200
     12 H051       -20.2680    11.8660    25.2540 h1         1 W0K       0.068200
     13 H062       -19.9440    13.9180    26.6450 h1         1 W0K       0.066200
     14 H061       -20.2440    12.9740    28.1190 h1         1 W0K       0.066200
     15 H041       -22.7170    11.6330    26.8020 hn         1 W0K       0.312500
     16 H1         -17.6840    13.5960    27.9640 hs         1 W0K       0.216800
@<TRIPOS>BOND
     1     1     2 1   
     2     1     8 1   
     3     1     9 1   
     4     1    10 1   
     5     2     5 1   
     6     2     6 2   
     7     3     4 1   
     8     3     5 1   
     9     3    11 1   
    10     3    12 1   
    11     4     7 1   
    12     4    13 1   
    13     4    14 1   
    14     5    15 1   
    15     7    16 1   
@<TRIPOS>SUBSTRUCTURE
     1 W0K         1 TEMP              0 ****  ****    0 ROOT
