@<TRIPOS>MOLECULE
W0M
   23    23     1     0     0
SMALL
bcc


@<TRIPOS>ATOM
      1 C4          21.1660    47.2680    10.5370 ca         1 W0M      -0.085000
      2 C5          21.0760    47.5170     9.1810 ca         1 W0M      -0.006600
      3 C6          20.9940    48.8200     8.7080 ca         1 W0M      -0.085000
      4 C7          21.0000    49.8720     9.6040 ca         1 W0M      -0.178000
      5 C8          22.5130    50.1630    13.6750 c          1 W0M       0.643100
      6 O1          22.6150    49.5720    14.7400 o          1 W0M      -0.604100
      7 N           23.5490    50.5290    12.9160 nt         1 W0M      -0.661000
      8 C1          21.1320    50.5860    13.1710 c3         1 W0M       0.063100
      9 C           20.7590    51.9300    13.7750 c3         1 W0M      -0.088100
     10 O           21.0850    50.7330    11.7640 os         1 W0M      -0.328900
     11 C2          21.0900    49.6340    10.9760 ca         1 W0M       0.133100
     12 CL          21.0670    46.1950     8.0580 cl         1 W0M      -0.110400
     13 C3          21.1740    48.3250    11.4400 ca         1 W0M      -0.178000
     14 H1          21.2330    46.2540    10.9070 ha         1 W0M       0.149000
     15 H2          20.9240    49.0170     7.6470 ha         1 W0M       0.149000
     16 H3          20.9350    50.8900     9.2420 ha         1 W0M       0.149500
     17 H4          24.4910    50.3370    13.2180 hn         1 W0M       0.321500
     18 H5          23.4350    51.0520    12.0640 hn         1 W0M       0.321500
     19 H6          20.4120    49.8320    13.5070 h1         1 W0M       0.077700
     20 H7          20.7770    51.8660    14.8610 hc         1 W0M       0.055700
     21 H8          21.4540    52.7110    13.4650 hc         1 W0M       0.055700
     22 H9          19.7530    52.2140    13.4710 hc         1 W0M       0.055700
     23 H10         21.2460    48.0880    12.4920 ha         1 W0M       0.149500
@<TRIPOS>BOND
     1     1     2 ar  
     2     1    13 ar  
     3     1    14 1   
     4     2     3 ar  
     5     2    12 1   
     6     3     4 ar  
     7     3    15 1   
     8     4    11 ar  
     9     4    16 1   
    10     5     6 2   
    11     5     7 1   
    12     5     8 1   
    13     7    17 1   
    14     7    18 1   
    15     8     9 1   
    16     8    10 1   
    17     8    19 1   
    18     9    20 1   
    19     9    21 1   
    20     9    22 1   
    21    10    11 1   
    22    11    13 ar  
    23    13    23 1   
@<TRIPOS>SUBSTRUCTURE
     1 W0M         1 TEMP              0 ****  ****    0 ROOT
