@<TRIPOS>MOLECULE
W0M
   23    23     1     0     0
SMALL
No Charge or Current Charge


@<TRIPOS>ATOM
      1 C4          21.0860    47.1960    10.5140 ca         1 W0M      -0.067000
      2 C5          21.0950    47.4530     9.1330 ca         1 W0M       0.085000
      3 C6          21.0570    48.7750     8.6620 ca         1 W0M      -0.067000
      4 C7          21.0130    49.8430     9.5770 ca         1 W0M      -0.160000
      5 C8          22.5510    50.1270    13.6370 c          1 W0M       0.576100
      6 O1          22.7760    49.2800    14.4880 o          1 W0M      -0.604100
      7 N           23.5810    50.7260    12.9930 nt         1 W0M      -0.594000
      8 C1          21.1190    50.5840    13.2420 c3         1 W0M       0.086300
      9 C           20.7950    51.9830    13.8080 c3         1 W0M      -0.088100
     10 O           20.9660    50.6880    11.8040 os         1 W0M      -0.352100
     11 C2          21.0110    49.5960    10.9600 ca         1 W0M       0.133100
     12 Cl          21.1480    46.1150     7.9910 cl         1 W0M      -0.202000
     13 C3          21.0430    48.2640    11.4300 ca         1 W0M      -0.160000
     14 H1          21.1110    46.1700    10.8730 ha         1 W0M       0.131000
     15 H2          21.0610    48.9720     7.5930 ha         1 W0M       0.131000
     16 H3          20.9840    50.8670     9.2130 ha         1 W0M       0.131500
     17 H4          24.5290    50.4600    13.2150 hn         1 W0M       0.321500
     18 H5          23.3910    51.4090    12.2740 hn         1 W0M       0.321500
     19 H6          20.4030    49.8650    13.6610 h1         1 W0M       0.077700
     20 H7          20.8840    51.9840    14.9010 hc         1 W0M       0.055700
     21 H8          21.4800    52.7400    13.4070 hc         1 W0M       0.055700
     22 H9          19.7690    52.2730    13.5510 hc         1 W0M       0.055700
     23 H10         21.0290    48.0350    12.4910 ha         1 W0M       0.131500
@<TRIPOS>BOND
     1     1     2 ar  
     2     1    13 ar  
     3     1    14 1   
     4     2     3 ar  
     5     2    12 1   
     6     3     4 ar  
     7     3    15 1   
     8     4    11 ar  
     9     4    16 1   
    10     5     6 2   
    11     5     7 1   
    12     5     8 1   
    13     7    17 1   
    14     7    18 1   
    15     8     9 1   
    16     8    10 1   
    17     8    19 1   
    18     9    20 1   
    19     9    21 1   
    20     9    22 1   
    21    10    11 1   
    22    11    13 ar  
    23    13    23 1   
@<TRIPOS>SUBSTRUCTURE
     1 W0M         1 TEMP              0 ****  ****    0 ROOT
