@<TRIPOS>MOLECULE
W0N
   31    31     1     0     0
SMALL
No Charge or Current Charge


@<TRIPOS>ATOM
      1 N1          18.9190    12.6940   -40.4560 na         1 W0N      -0.002200
      2 C7          16.8810    13.1160   -40.9370 cc         1 W0N       0.197500
      3 C8          17.1520    13.7320   -39.7010 cc         1 W0N      -0.167000
      4 N2          17.9380    12.4740   -41.4250 nd         1 W0N      -0.525800
      5 C9          18.4500    13.4680   -39.3860 cd         1 W0N      -0.179000
      6 C1          13.8970    11.2580   -46.1060 c3         1 W0N      -0.068400
      7 C5          13.1430    11.6990   -42.9820 c3         1 W0N      -0.102100
      8 C6          15.5250    13.2090   -41.5840 c          1 W0N       0.533600
      9 C4          13.8870    13.7980   -44.2190 c3         1 W0N      -0.102100
     10 C3          14.3220    12.3990   -43.7140 c3         1 W0N       0.142400
     11 C2          14.8380    11.5040   -44.8900 c3         1 W0N      -0.088400
     12 O           14.5710    13.8120   -41.1020 o          1 W0N      -0.613100
     13 N           15.4650    12.5350   -42.7960 ns         1 W0N      -0.501900
     14 C           14.0640    12.2620   -47.2690 c3         1 W0N      -0.091100
     15 H1          19.8610    12.3150   -40.5560 hn         1 W0N       0.373000
     16 H2          16.4390    14.3090   -39.1200 ha         1 W0N       0.163000
     17 H3          19.0580    13.7490   -38.5320 h4         1 W0N       0.158000
     18 H4          12.8480    11.2340   -45.7930 hc         1 W0N       0.039700
     19 H5          14.1130    10.2590   -46.5040 hc         1 W0N       0.039700
     20 H6          12.7810    12.2950   -42.1380 hc         1 W0N       0.046867
     21 H7          12.2890    11.5460   -43.6500 hc         1 W0N       0.046867
     22 H8          13.4500    10.7200   -42.5960 hc         1 W0N       0.046867
     23 H9          13.6090    14.4600   -43.3920 hc         1 W0N       0.046867
     24 H10         14.6960    14.2810   -44.7800 hc         1 W0N       0.046867
     25 H11         13.0090    13.7230   -44.8700 hc         1 W0N       0.046867
     26 H12         15.0960    10.5220   -44.4720 hc         1 W0N       0.042700
     27 H13         15.7850    11.9130   -45.2670 hc         1 W0N       0.042700
     28 H14         16.3330    12.0850   -43.0630 hn         1 W0N       0.325500
     29 H15         13.4090    11.9840   -48.1040 hc         1 W0N       0.033700
     30 H16         13.8080    13.2830   -46.9690 hc         1 W0N       0.033700
     31 H17         15.0970    12.2600   -47.6360 hc         1 W0N       0.033700
@<TRIPOS>BOND
     1     1     4 1   
     2     1     5 1   
     3     1    15 1   
     4     2     3 1   
     5     2     4 2   
     6     2     8 1   
     7     3     5 2   
     8     3    16 1   
     9     5    17 1   
    10     6    11 1   
    11     6    14 1   
    12     6    18 1   
    13     6    19 1   
    14     7    10 1   
    15     7    20 1   
    16     7    21 1   
    17     7    22 1   
    18     8    12 2   
    19     8    13 1   
    20     9    10 1   
    21     9    23 1   
    22     9    24 1   
    23     9    25 1   
    24    10    11 1   
    25    10    13 1   
    26    11    26 1   
    27    11    27 1   
    28    13    28 1   
    29    14    29 1   
    30    14    30 1   
    31    14    31 1   
@<TRIPOS>SUBSTRUCTURE
     1 W0N         1 TEMP              0 ****  ****    0 ROOT
