@<TRIPOS>MOLECULE
W0N
   31    31     1     0     0
SMALL
abcg2


@<TRIPOS>ATOM
      1 N1          18.8280    12.6800   -40.5130 na         1 W0N      -0.002200
      2 C7          16.8040    13.1560   -40.9170 cc         1 W0N       0.197500
      3 C8          17.1180    13.7590   -39.6810 cc         1 W0N      -0.167000
      4 N2          17.8570    12.4990   -41.4130 nd         1 W0N      -0.525800
      5 C9          18.4370    13.4280   -39.4560 cd         1 W0N      -0.179000
      6 C1          13.9140    11.2780   -46.0610 c3         1 W0N      -0.068400
      7 C5          13.1750    11.6930   -42.9970 c3         1 W0N      -0.102100
      8 C6          15.4950    13.2030   -41.6260 c          1 W0N       0.533600
      9 C4          13.8740    13.7850   -44.2150 c3         1 W0N      -0.102100
     10 C3          14.3230    12.4060   -43.7230 c3         1 W0N       0.142400
     11 C2          14.8590    11.5290   -44.8750 c3         1 W0N      -0.088400
     12 O           14.5400    13.8050   -41.1260 o          1 W0N      -0.613100
     13 N           15.4700    12.5550   -42.8030 ns         1 W0N      -0.501900
     14 C           14.1000    12.2410   -47.2350 c3         1 W0N      -0.091100
     15 H1          19.7380    12.2710   -40.6700 hn         1 W0N       0.373000
     16 H2          16.4730    14.3480   -39.0540 ha         1 W0N       0.163000
     17 H3          19.1100    13.6600   -38.6480 h4         1 W0N       0.158000
     18 H4          12.8740    11.3020   -45.7290 hc         1 W0N       0.039700
     19 H5          14.0840    10.2610   -46.4230 hc         1 W0N       0.039700
     20 H6          12.8380    12.2820   -42.1460 hc         1 W0N       0.046867
     21 H7          12.3310    11.5500   -43.6710 hc         1 W0N       0.046867
     22 H8          13.5030    10.7150   -42.6400 hc         1 W0N       0.046867
     23 H9          13.5820    14.4090   -43.3730 hc         1 W0N       0.046867
     24 H10         14.6810    14.2810   -44.7570 hc         1 W0N       0.046867
     25 H11         13.0180    13.6870   -44.8820 hc         1 W0N       0.046867
     26 H12         15.1450    10.5710   -44.4310 hc         1 W0N       0.042700
     27 H13         15.7810    11.9860   -45.2490 hc         1 W0N       0.042700
     28 H14         16.3350    12.1080   -43.0720 hn         1 W0N       0.325500
     29 H15         13.4360    11.9770   -48.0620 hc         1 W0N       0.033700
     30 H16         13.8890    13.2730   -46.9540 hc         1 W0N       0.033700
     31 H17         15.1270    12.2010   -47.6060 hc         1 W0N       0.033700
@<TRIPOS>BOND
     1     1     4 1   
     2     1     5 1   
     3     1    15 1   
     4     2     3 1   
     5     2     4 2   
     6     2     8 1   
     7     3     5 2   
     8     3    16 1   
     9     5    17 1   
    10     6    11 1   
    11     6    14 1   
    12     6    18 1   
    13     6    19 1   
    14     7    10 1   
    15     7    20 1   
    16     7    21 1   
    17     7    22 1   
    18     8    12 2   
    19     8    13 1   
    20     9    10 1   
    21     9    23 1   
    22     9    24 1   
    23     9    25 1   
    24    10    11 1   
    25    10    13 1   
    26    11    26 1   
    27    11    27 1   
    28    13    28 1   
    29    14    29 1   
    30    14    30 1   
    31    14    31 1   
@<TRIPOS>SUBSTRUCTURE
     1 W0N         1 TEMP              0 ****  ****    0 ROOT
