@<TRIPOS>MOLECULE
W0O
   54    58     1     0     0
SMALL
abcg2


@<TRIPOS>ATOM
      1 C1           3.6110     8.4250   -31.7960 c3         1 W0O       0.153100
      2 C2           2.7010    10.1490   -30.4080 c6         1 W0O       0.166800
      3 C3           1.9160    10.4450   -29.1390 c6         1 W0O      -0.088400
      4 C4           3.7480     8.2410   -29.4150 c6         1 W0O       0.166800
      5 N6           0.7820     9.6180   -26.4490 nc         1 W0O      -0.517100
      6 C7           2.3390    10.9980   -25.6810 ca         1 W0O       0.157500
      7 C8           3.5360    12.3910   -24.4680 ca         1 W0O       0.195900
      8 C9           1.5660    11.6640   -23.5350 ca         1 W0O       0.456900
      9 C11          0.3620    10.0480   -25.2810 cd         1 W0O       0.436500
     10 C12         -0.9300     9.6040   -24.7480 ca         1 W0O      -0.131900
     11 C13         -1.8240    10.5110   -24.1790 ca         1 W0O      -0.065000
     12 C14         -3.0500    10.0940   -23.6910 ca         1 W0O      -0.160500
     13 C15         -3.4110     8.7540   -23.7820 ca         1 W0O       0.140100
     14 C16         -4.9160     7.1270   -22.9630 ca         1 W0O       0.102100
     15 C17         -5.9460     6.4690   -23.6170 ca         1 W0O      -0.125500
     16 C18         -6.2850     5.1800   -23.2260 ca         1 W0O      -0.096000
     17 C19         -5.5930     4.5510   -22.2000 ca         1 W0O      -0.116000
     18 C20         -4.5590     5.2210   -21.5570 ca         1 W0O      -0.096000
     19 C22         -2.5420     7.8380   -24.3660 ca         1 W0O      -0.160500
     20 C23         -1.3130     8.2680   -24.8410 ca         1 W0O      -0.065000
     21 C10          1.3230    10.9360   -24.7240 ca         1 W0O      -0.380900
     22 C21         -4.2170     6.5120   -21.9310 ca         1 W0O      -0.125500
     23 C5           3.0130     8.4550   -28.1000 c6         1 W0O      -0.088400
     24 C6           2.6850     9.9320   -27.9270 c6         1 W0O       0.108300
     25 N1           2.9720     8.7300   -30.5370 n3         1 W0O      -0.716600
     26 N2           1.9730    10.1850   -26.6890 na         1 W0O      -0.015100
     27 N3           3.4610    11.7200   -25.5980 nb         1 W0O      -0.234000
     28 N4           2.6770    12.3990   -23.4500 nb         1 W0O      -0.314000
     29 O1          -4.6450     8.4230   -23.3190 os         1 W0O      -0.254200
     30 H1           3.7490     7.3470   -31.8950 h1         1 W0O       0.030700
     31 H2           2.9830     8.7570   -32.6250 h1         1 W0O       0.030700
     32 H3           4.5980     8.9000   -31.9130 h1         1 W0O       0.030700
     33 H4           3.6350    10.7410   -30.4040 h1         1 W0O       0.033700
     34 H5           2.1260    10.4790   -31.2760 h1         1 W0O       0.033700
     35 H6           1.7480    11.5210   -29.0530 hc         1 W0O       0.063950
     36 H7           0.9400     9.9580   -29.1900 hc         1 W0O       0.063950
     37 H8           3.9360     7.1740   -29.5540 h1         1 W0O       0.033700
     38 H9           4.7370     8.7310   -29.3630 h1         1 W0O       0.033700
     39 H10          4.4150    13.0140   -24.3370 h5         1 W0O       0.045100
     40 H11         -1.5730    11.5640   -24.1290 ha         1 W0O       0.126000
     41 H12         -3.7350    10.8080   -23.2520 ha         1 W0O       0.130500
     42 H13         -6.4810     6.9620   -24.4180 ha         1 W0O       0.127500
     43 H14         -7.0910     4.6650   -23.7320 ha         1 W0O       0.117000
     44 H15         -5.8580     3.5460   -21.9010 ha         1 W0O       0.117000
     45 H16         -4.0180     4.7410   -20.7520 ha         1 W0O       0.117000
     46 H17         -2.8100     6.7930   -24.4560 ha         1 W0O       0.130500
     47 H18         -0.6400     7.5460   -25.2840 ha         1 W0O       0.126000
     48 H19         -3.4190     7.0370   -21.4210 ha         1 W0O       0.127500
     49 H20          2.0900     7.8700   -28.0980 hc         1 W0O       0.063950
     50 H21          3.6310     8.1040   -27.2720 hc         1 W0O       0.063950
     51 H22          3.6190    10.4930   -27.8410 h1         1 W0O       0.081700
     52 H24          1.0280    12.1240   -21.6400 hn         1 W0O       0.501500
     53 H25         -0.0290    11.0180   -22.4200 hn         1 W0O       0.501500
     54 N5           0.7410    11.6610   -22.4860 nv         1 W0O      -1.066900
@<TRIPOS>BOND
     1     1    25 1   
     2     1    30 1   
     3     1    31 1   
     4     1    32 1   
     5     2     3 1   
     6     2    25 1   
     7     2    33 1   
     8     2    34 1   
     9     3    24 1   
    10     3    35 1   
    11     3    36 1   
    12     4    23 1   
    13     4    25 1   
    14     4    37 1   
    15     4    38 1   
    16     5     9 2   
    17     5    26 1   
    18     6    21 ar  
    19     6    26 1   
    20     6    27 ar  
    21     7    27 ar  
    22     7    28 ar  
    23     7    39 1   
    24     8    21 ar  
    25     8    28 ar  
    26     8    54 1   
    27     9    10 1   
    28     9    21 1   
    29    10    11 ar  
    30    10    20 ar  
    31    11    12 ar  
    32    11    40 1   
    33    12    13 ar  
    34    12    41 1   
    35    13    19 ar  
    36    13    29 1   
    37    14    15 ar  
    38    14    22 ar  
    39    14    29 1   
    40    15    16 ar  
    41    15    42 1   
    42    16    17 ar  
    43    16    43 1   
    44    17    18 ar  
    45    17    44 1   
    46    18    22 ar  
    47    18    45 1   
    48    19    20 ar  
    49    19    46 1   
    50    20    47 1   
    51    22    48 1   
    52    23    24 1   
    53    23    49 1   
    54    23    50 1   
    55    24    26 1   
    56    24    51 1   
    57    52    54 1   
    58    53    54 1   
@<TRIPOS>SUBSTRUCTURE
     1 W0O         1 TEMP              0 ****  ****    0 ROOT
