@<TRIPOS>MOLECULE
W0O
   54    58     1     0     0
SMALL
No Charge or Current Charge


@<TRIPOS>ATOM
      1 C1           4.1830     8.6680   -31.9510 c3         1 W0O       0.153100
      2 C2           2.8200    10.2380   -30.6270 c6         1 W0O       0.166800
      3 C3           1.9180    10.3900   -29.3810 c6         1 W0O      -0.088400
      4 C4           4.1960     8.5360   -29.4900 c6         1 W0O       0.166800
      5 N6           0.6190     9.5250   -26.6930 nc         1 W0O      -0.517100
      6 C7           2.2410    10.8760   -25.7570 ca         1 W0O       0.157500
      7 C8           3.4240    12.0890   -24.2200 ca         1 W0O       0.195900
      8 C9           1.4070    11.2400   -23.5550 ca         1 W0O       0.456900
      9 C11          0.2400     9.9000   -25.4660 cd         1 W0O       0.436500
     10 C12         -1.0600     9.5020   -24.8970 ca         1 W0O      -0.131900
     11 C13         -1.9120    10.4610   -24.3100 ca         1 W0O      -0.065000
     12 C14         -3.1730    10.0850   -23.8160 ca         1 W0O      -0.160500
     13 C15         -3.6020     8.7530   -23.9180 ca         1 W0O       0.140100
     14 C16         -5.1150     7.2130   -22.8240 ca         1 W0O       0.102100
     15 C17         -6.3530     6.5910   -23.0540 ca         1 W0O      -0.125500
     16 C18         -6.6560     5.3690   -22.4260 ca         1 W0O      -0.096000
     17 C19         -5.7210     4.7740   -21.5610 ca         1 W0O      -0.116000
     18 C20         -4.4860     5.4010   -21.3190 ca         1 W0O      -0.096000
     19 C22         -2.7810     7.8000   -24.5480 ca         1 W0O      -0.160500
     20 C23         -1.5190     8.1760   -25.0420 ca         1 W0O      -0.065000
     21 C10          1.2460    10.7200   -24.8350 ca         1 W0O      -0.380900
     22 C21         -4.1830     6.6230   -21.9460 ca         1 W0O      -0.125500
     23 C5           3.3340     8.6430   -28.2110 c6         1 W0O      -0.088400
     24 C6           2.7080    10.0530   -28.0930 c6         1 W0O       0.108300
     25 N1           3.4090     8.8730   -30.7070 n3         1 W0O      -0.716600
     26 N2           1.8540    10.1580   -26.8820 na         1 W0O      -0.015100
     27 N3           3.3580    11.5750   -25.4710 nb         1 W0O      -0.234000
     28 N4           2.5030    11.9420   -23.2370 nb         1 W0O      -0.314000
     29 O1          -4.8490     8.4150   -23.4410 os         1 W0O      -0.254200
     30 H1           4.5490     7.6350   -32.0140 h1         1 W0O       0.030700
     31 H2           3.5580     8.8600   -32.8330 h1         1 W0O       0.030700
     32 H3           5.0490     9.3430   -31.9890 h1         1 W0O       0.030700
     33 H4           3.6180    10.9950   -30.5880 h1         1 W0O       0.033700
     34 H5           2.2190    10.4470   -31.5240 h1         1 W0O       0.033700
     35 H6           1.5280    11.4150   -29.3280 hc         1 W0O       0.063950
     36 H7           1.0490     9.7250   -29.4810 hc         1 W0O       0.063950
     37 H8           4.5910     7.5120   -29.5630 h1         1 W0O       0.033700
     38 H9           5.0610     9.2100   -29.3970 h1         1 W0O       0.033700
     39 H10          4.3180    12.6590   -23.9730 h5         1 W0O       0.045100
     40 H11         -1.6020    11.5020   -24.2470 ha         1 W0O       0.126000
     41 H12         -3.8220    10.8270   -23.3590 ha         1 W0O       0.130500
     42 H13         -7.0760     7.0530   -23.7220 ha         1 W0O       0.127500
     43 H14         -7.6140     4.8860   -22.6090 ha         1 W0O       0.117000
     44 H15         -5.9560     3.8290   -21.0740 ha         1 W0O       0.117000
     45 H16         -3.7670     4.9430   -20.6430 ha         1 W0O       0.117000
     46 H17         -3.1200     6.7740   -24.6640 ha         1 W0O       0.130500
     47 H18         -0.8930     7.4330   -25.5330 ha         1 W0O       0.126000
     48 H19         -3.2320     7.1080   -21.7460 ha         1 W0O       0.127500
     49 H20          2.5440     7.8800   -28.2390 hc         1 W0O       0.063950
     50 H21          3.9510     8.4290   -27.3290 hc         1 W0O       0.063950
     51 H22          3.5260    10.7820   -28.0030 h1         1 W0O       0.081700
     52 H24          0.8490    11.2510   -21.6020 hn         1 W0O       0.501500
     53 H25         -0.1610    10.3090   -22.6430 hn         1 W0O       0.501500
     54 N5           0.5350    11.0420   -22.5460 nv         1 W0O      -1.066900
@<TRIPOS>BOND
     1     1    25 1   
     2     1    30 1   
     3     1    31 1   
     4     1    32 1   
     5     2     3 1   
     6     2    25 1   
     7     2    33 1   
     8     2    34 1   
     9     3    24 1   
    10     3    35 1   
    11     3    36 1   
    12     4    23 1   
    13     4    25 1   
    14     4    37 1   
    15     4    38 1   
    16     5     9 2   
    17     5    26 1   
    18     6    21 ar  
    19     6    26 1   
    20     6    27 ar  
    21     7    27 ar  
    22     7    28 ar  
    23     7    39 1   
    24     8    21 ar  
    25     8    28 ar  
    26     8    54 1   
    27     9    10 1   
    28     9    21 1   
    29    10    11 ar  
    30    10    20 ar  
    31    11    12 ar  
    32    11    40 1   
    33    12    13 ar  
    34    12    41 1   
    35    13    19 ar  
    36    13    29 1   
    37    14    15 ar  
    38    14    22 ar  
    39    14    29 1   
    40    15    16 ar  
    41    15    42 1   
    42    16    17 ar  
    43    16    43 1   
    44    17    18 ar  
    45    17    44 1   
    46    18    22 ar  
    47    18    45 1   
    48    19    20 ar  
    49    19    46 1   
    50    20    47 1   
    51    22    48 1   
    52    23    24 1   
    53    23    49 1   
    54    23    50 1   
    55    24    26 1   
    56    24    51 1   
    57    52    54 1   
    58    53    54 1   
@<TRIPOS>SUBSTRUCTURE
     1 W0O         1 TEMP              0 ****  ****    0 ROOT
