@<TRIPOS>MOLECULE
W0P
   21    21     1     0     0
SMALL
No Charge or Current Charge


@<TRIPOS>ATOM
      1 C4          -2.8260    10.4490    -5.0990 ca         1 W0P      -0.090000
      2 C5          -2.8450     9.3780    -6.0080 ca         1 W0P      -0.165000
      3 C6          -1.6860     9.0510    -6.7320 ca         1 W0P      -0.130000
      4 C7          -0.5080     9.7940    -6.5430 ca         1 W0P       0.103000
      5 C8           0.9250    12.0880    -3.0150 c          1 W0P       0.704000
      6 O1           0.7770    12.9000    -2.1120 o          1 W0P      -0.711500
      7 O2           1.0410    10.8850    -2.8120 o          1 W0P      -0.711500
      8 C1           0.8870    12.6240    -4.4880 c3         1 W0P       0.015300
      9 C            2.2040    13.3430    -4.8500 c3         1 W0P      -0.067100
     10 O            0.7060    11.5830    -5.4830 os         1 W0P      -0.322100
     11 C2          -0.4750    10.8710    -5.6280 ca         1 W0P       0.182100
     12 F            0.5970     9.4650    -7.2530 f          1 W0P      -0.187000
     13 C3          -1.6500    11.1960    -4.9080 ca         1 W0P      -0.170000
     14 H1          -3.7260    10.7020    -4.5420 ha         1 W0P       0.097000
     15 H2          -3.7570     8.8040    -6.1530 ha         1 W0P       0.094000
     16 H3          -1.6980     8.2240    -7.4380 ha         1 W0P       0.107000
     17 H5           0.0770    13.3610    -4.5620 h1         1 W0P       0.023700
     18 H6           2.3770    14.1910    -4.1760 hc         1 W0P       0.029700
     19 H7           3.0570    12.6590    -4.7640 hc         1 W0P       0.029700
     20 H8           2.1670    13.7270    -5.8760 hc         1 W0P       0.029700
     21 H9          -1.6680    12.0200    -4.2020 ha         1 W0P       0.138000
@<TRIPOS>BOND
     1     1     2 ar  
     2     1    13 ar  
     3     1    14 1   
     4     2     3 ar  
     5     2    15 1   
     6     3     4 ar  
     7     3    16 1   
     8     4    11 ar  
     9     4    12 1   
    10     5     6 1   
    11     5     7 1   
    12     5     8 1   
    13     8     9 1   
    14     8    10 1   
    15     8    17 1   
    16     9    18 1   
    17     9    19 1   
    18     9    20 1   
    19    10    11 1   
    20    11    13 ar  
    21    13    21 1   
@<TRIPOS>SUBSTRUCTURE
     1 W0P         1 TEMP              0 ****  ****    0 ROOT
