@<TRIPOS>MOLECULE
W0P
   21    21     1     0     0
SMALL
abcg2


@<TRIPOS>ATOM
      1 C4          -2.7800    10.4580    -5.0800 ca         1 W0P      -0.090000
      2 C5          -2.8060     9.4110    -5.9860 ca         1 W0P      -0.165000
      3 C6          -1.6540     9.1030    -6.7020 ca         1 W0P      -0.130000
      4 C7          -0.5140     9.8450    -6.4950 ca         1 W0P       0.103000
      5 C8           0.8620    12.0550    -3.0770 c          1 W0P       0.704000
      6 O1           0.7510    12.9430    -2.2110 o          1 W0P      -0.711500
      7 O2           1.0120    10.8340    -2.9130 o          1 W0P      -0.711500
      8 C1           0.8520    12.5890    -4.5320 c3         1 W0P       0.015300
      9 C            2.1630    13.2890    -4.8490 c3         1 W0P      -0.067100
     10 O            0.7060    11.5570    -5.5030 os         1 W0P      -0.322100
     11 C2          -0.4580    10.9040    -5.5840 ca         1 W0P       0.182100
     12 F            0.6010     9.5510    -7.1880 f          1 W0P      -0.187000
     13 C3          -1.6210    11.2000    -4.8780 ca         1 W0P      -0.170000
     14 H1          -3.6680    10.7100    -4.5150 ha         1 W0P       0.097000
     15 H2          -3.7080     8.8340    -6.1390 ha         1 W0P       0.094000
     16 H3          -1.6400     8.2910    -7.4180 ha         1 W0P       0.107000
     17 H5           0.0350    13.3130    -4.6460 h1         1 W0P       0.023700
     18 H6           2.3050    14.1230    -4.1640 hc         1 W0P       0.029700
     19 H7           3.0110    12.6100    -4.7380 hc         1 W0P       0.029700
     20 H8           2.1680    13.6830    -5.8660 hc         1 W0P       0.029700
     21 H9          -1.6400    12.0100    -4.1610 ha         1 W0P       0.138000
@<TRIPOS>BOND
     1     1     2 ar  
     2     1    13 ar  
     3     1    14 1   
     4     2     3 ar  
     5     2    15 1   
     6     3     4 ar  
     7     3    16 1   
     8     4    11 ar  
     9     4    12 1   
    10     5     6 1   
    11     5     7 1   
    12     5     8 1   
    13     8     9 1   
    14     8    10 1   
    15     8    17 1   
    16     9    18 1   
    17     9    19 1   
    18     9    20 1   
    19    10    11 1   
    20    11    13 ar  
    21    13    21 1   
@<TRIPOS>SUBSTRUCTURE
     1 W0P         1 TEMP              0 ****  ****    0 ROOT
