@<TRIPOS>MOLECULE
W0R
   34    34     1     0     0
SMALL
abcg2


@<TRIPOS>ATOM
      1 N1          16.1880    14.5040   -39.3090 nb         1 W0R      -0.644000
      2 C7          15.9760    13.1400   -41.2720 ca         1 W0R      -0.076000
      3 C8          16.8010    12.1750   -40.6880 ca         1 W0R      -0.132000
      4 C9          17.3070    12.3950   -39.4210 ca         1 W0R      -0.135000
      5 C1          12.5050    13.6410   -49.1320 c3         1 W0R      -0.048700
      6 C5          14.3890    13.0690   -44.7150 c3         1 W0R      -0.154400
      7 C6          14.6940    13.6600   -43.3530 c          1 W0R       0.601100
      8 C4          15.0800    13.8850   -45.8130 c3         1 W0R       0.066600
      9 C3          13.0090    13.7780   -47.6910 c3         1 W0R       0.078600
     10 C2          12.5620    12.1970   -49.6350 c3         1 W0R      -0.089100
     11 O           14.2740    14.7640   -43.0220 o          1 W0R      -0.580100
     12 S           14.7630    13.2790   -47.4970 ss         1 W0R      -0.450000
     13 C           13.2070    14.5990   -50.0950 c3         1 W0R      -0.089100
     14 N           15.4820    12.8810   -42.5580 ns         1 W0R      -0.142000
     15 C11         15.6950    14.2960   -40.5330 ca         1 W0R       0.320900
     16 C10         16.9770    13.5760   -38.7640 ca         1 W0R       0.308900
     17 H1          17.0370    11.2670   -41.2310 ha         1 W0R       0.115000
     18 H2          17.9490    11.6650   -38.9470 ha         1 W0R       0.124000
     19 H3          11.4500    13.9330   -49.0850 hc         1 W0R       0.047700
     20 H4          13.3060    13.1100   -44.8450 hc         1 W0R       0.070700
     21 H5          14.7000    12.0270   -44.7800 hc         1 W0R       0.070700
     22 H6          16.1630    13.8360   -45.6920 h1         1 W0R       0.080700
     23 H7          14.7800    14.9320   -45.7560 h1         1 W0R       0.080700
     24 H8          12.9330    14.8170   -47.3660 h1         1 W0R       0.057700
     25 H9          12.3990    13.1620   -47.0300 h1         1 W0R       0.057700
     26 H10         12.0540    11.5180   -48.9460 hc         1 W0R       0.038700
     27 H11         12.0830    12.1140   -50.6120 hc         1 W0R       0.038700
     28 H12         13.5950    11.8570   -49.7420 hc         1 W0R       0.038700
     29 H13         13.1480    15.6290   -49.7370 hc         1 W0R       0.038700
     30 H14         14.2630    14.3420   -50.2090 hc         1 W0R       0.038700
     31 H15         12.7440    14.5540   -51.0830 hc         1 W0R       0.038700
     32 H16         15.7610    11.9930   -42.9480 hn         1 W0R       0.151000
     33 H17         15.0610    15.0630   -40.9470 h4         1 W0R       0.054100
     34 H18         17.3570    13.7810   -37.7700 h4         1 W0R       0.023100
@<TRIPOS>BOND
     1     1    15 ar  
     2     1    16 ar  
     3     2     3 ar  
     4     2    14 1   
     5     2    15 ar  
     6     3     4 ar  
     7     3    17 1   
     8     4    16 ar  
     9     4    18 1   
    10     5     9 1   
    11     5    10 1   
    12     5    13 1   
    13     5    19 1   
    14     6     7 1   
    15     6     8 1   
    16     6    20 1   
    17     6    21 1   
    18     7    11 2   
    19     7    14 1   
    20     8    12 1   
    21     8    22 1   
    22     8    23 1   
    23     9    12 1   
    24     9    24 1   
    25     9    25 1   
    26    10    26 1   
    27    10    27 1   
    28    10    28 1   
    29    13    29 1   
    30    13    30 1   
    31    13    31 1   
    32    14    32 1   
    33    15    33 1   
    34    16    34 1   
@<TRIPOS>SUBSTRUCTURE
     1 W0R         1 TEMP              0 ****  ****    0 ROOT
