@<TRIPOS>MOLECULE
W0R
   34    34     1     0     0
SMALL
No Charge or Current Charge


@<TRIPOS>ATOM
      1 N1          16.1380    14.3060   -39.1040 nb         1 W0R      -0.644000
      2 C7          16.0090    13.1250   -41.2380 ca         1 W0R      -0.076000
      3 C8          16.9000    12.1460   -40.7610 ca         1 W0R      -0.132000
      4 C9          17.3960    12.2670   -39.4520 ca         1 W0R      -0.135000
      5 C1          12.5130    13.6130   -49.2070 c3         1 W0R      -0.048700
      6 C5          14.3630    13.2380   -44.7240 c3         1 W0R      -0.154400
      7 C6          14.6250    13.7560   -43.3080 c          1 W0R       0.601100
      8 C4          15.0240    14.1520   -45.7760 c3         1 W0R       0.066600
      9 C3          12.9980    13.9650   -47.7760 c3         1 W0R       0.078600
     10 C2          12.5120    12.0890   -49.4750 c3         1 W0R      -0.089100
     11 O           14.0590    14.7540   -42.8790 o          1 W0R      -0.580100
     12 S           14.7670    13.4820   -47.4830 ss         1 W0R      -0.450000
     13 C           13.2810    14.3880   -50.3030 c3         1 W0R      -0.089100
     14 N           15.5150    12.9890   -42.5670 ns         1 W0R      -0.142000
     15 C11         15.6580    14.1910   -40.3680 ca         1 W0R       0.320900
     16 C10         16.9920    13.3560   -38.6610 ca         1 W0R       0.308900
     17 H1          17.2020    11.3090   -41.3880 ha         1 W0R       0.115000
     18 H2          18.0850    11.5300   -39.0480 ha         1 W0R       0.124000
     19 H3          11.4680    13.9410   -49.2640 hc         1 W0R       0.047700
     20 H4          13.2810    13.2270   -44.8950 hc         1 W0R       0.070700
     21 H5          14.7680    12.2250   -44.8380 hc         1 W0R       0.070700
     22 H6          16.1040    14.2110   -45.5830 h1         1 W0R       0.080700
     23 H7          14.6120    15.1690   -45.7140 h1         1 W0R       0.080700
     24 H8          12.8960    15.0460   -47.6150 h1         1 W0R       0.057700
     25 H9          12.3610    13.4530   -47.0430 h1         1 W0R       0.057700
     26 H10         11.9410    11.5600   -48.7030 hc         1 W0R       0.038700
     27 H11         12.0520    11.8690   -50.4460 hc         1 W0R       0.038700
     28 H12         13.5320    11.6870   -49.4840 hc         1 W0R       0.038700
     29 H13         13.2480    15.4670   -50.1090 hc         1 W0R       0.038700
     30 H14         14.3320    14.0790   -50.3460 hc         1 W0R       0.038700
     31 H15         12.8340    14.2070   -51.2870 hc         1 W0R       0.038700
     32 H16         15.8850    12.1880   -43.0630 hn         1 W0R       0.151000
     33 H17         14.9780    14.9830   -40.6740 h4         1 W0R       0.054100
     34 H18         17.3630    13.4710   -37.6440 h4         1 W0R       0.023100
@<TRIPOS>BOND
     1     1    15 ar  
     2     1    16 ar  
     3     2     3 ar  
     4     2    14 1   
     5     2    15 ar  
     6     3     4 ar  
     7     3    17 1   
     8     4    16 ar  
     9     4    18 1   
    10     5     9 1   
    11     5    10 1   
    12     5    13 1   
    13     5    19 1   
    14     6     7 1   
    15     6     8 1   
    16     6    20 1   
    17     6    21 1   
    18     7    11 2   
    19     7    14 1   
    20     8    12 1   
    21     8    22 1   
    22     8    23 1   
    23     9    12 1   
    24     9    24 1   
    25     9    25 1   
    26    10    26 1   
    27    10    27 1   
    28    10    28 1   
    29    13    29 1   
    30    13    30 1   
    31    13    31 1   
    32    14    32 1   
    33    15    33 1   
    34    16    34 1   
@<TRIPOS>SUBSTRUCTURE
     1 W0R         1 TEMP              0 ****  ****    0 ROOT
