@<TRIPOS>MOLECULE
W0S
   29    29     1     0     0
SMALL
No Charge or Current Charge


@<TRIPOS>ATOM
      1 C4           4.3910    52.3850    -1.8870 c3         1 W0S       0.194100
      2 C5           6.0530    53.7960    -3.1980 ca         1 W0S      -0.216000
      3 C6           6.9030    54.9160    -3.3490 ca         1 W0S       0.153100
      4 C7           7.5840    54.1530    -5.6150 c3         1 W0S       0.146400
      5 C8           6.9950    55.8720    -2.2900 ca         1 W0S       0.025100
      6 N            3.0450    52.6310    -2.4420 n8         1 W0S      -1.000200
      7 C3           5.3000    53.6050    -2.0280 ca         1 W0S      -0.018300
      8 C2           5.3910    54.5450    -0.9900 ca         1 W0S      -0.216000
      9 O2           7.7960    57.0160    -2.3180 os         1 W0S      -0.328100
     10 C9           8.6470    57.4040    -3.4120 c3         1 W0S       0.148900
     11 C1           6.2300    55.6720    -1.1140 ca         1 W0S       0.153100
     12 O            6.3330    56.6090    -0.0970 os         1 W0S      -0.325100
     13 C            5.6020    56.5000     1.1370 c3         1 W0S       0.146400
     14 H1           4.8380    51.5270    -2.4080 h1         1 W0S       0.035700
     15 H2           4.2920    52.1200    -0.8240 h1         1 W0S       0.035700
     16 H3           5.9580    53.0540    -3.9840 ha         1 W0S       0.127500
     17 H4           8.2450    54.4890    -6.4230 h1         1 W0S       0.040867
     18 H5           7.9130    53.1550    -5.3010 h1         1 W0S       0.040867
     19 H6           6.5650    54.0810    -6.0180 h1         1 W0S       0.040867
     20 H7           2.4470    51.8210    -2.2360 hn         1 W0S       0.397500
     21 H8           2.6080    53.3960    -1.9150 hn         1 W0S       0.397500
     22 H10          4.8010    54.3820    -0.0930 ha         1 W0S       0.127500
     23 H11          9.1630    58.3420    -3.1710 h1         1 W0S       0.032033
     24 H12          9.4120    56.6410    -3.6040 h1         1 W0S       0.032033
     25 H13          8.0610    57.5700    -4.3250 h1         1 W0S       0.032033
     26 H14          5.8360    57.3490     1.7920 h1         1 W0S       0.040867
     27 H15          4.5200    56.5030     0.9520 h1         1 W0S       0.040867
     28 H16          5.8680    55.5780     1.6690 h1         1 W0S       0.040867
     29 O1           7.6350    55.0790    -4.5150 os         1 W0S      -0.325100
@<TRIPOS>BOND
     1     1     6 1   
     2     1     7 1   
     3     1    14 1   
     4     1    15 1   
     5     2     3 ar  
     6     2     7 ar  
     7     2    16 1   
     8     3     5 ar  
     9     3    29 1   
    10     4    17 1   
    11     4    18 1   
    12     4    19 1   
    13     4    29 1   
    14     5     9 1   
    15     5    11 ar  
    16     6    20 1   
    17     6    21 1   
    18     7     8 ar  
    19     8    11 ar  
    20     8    22 1   
    21     9    10 1   
    22    10    23 1   
    23    10    24 1   
    24    10    25 1   
    25    11    12 1   
    26    12    13 1   
    27    13    26 1   
    28    13    27 1   
    29    13    28 1   
@<TRIPOS>SUBSTRUCTURE
     1 W0S         1 TEMP              0 ****  ****    0 ROOT
