@<TRIPOS>MOLECULE
W0S
   29    29     1     0     0
SMALL
abcg2


@<TRIPOS>ATOM
      1 C4           4.4820    52.4680    -1.6770 c3         1 W0S       0.194100
      2 C5           5.7690    53.9100    -3.2860 ca         1 W0S      -0.216000
      3 C6           6.5160    55.0500    -3.5720 ca         1 W0S       0.153100
      4 C7           6.8950    54.3800    -5.8130 c3         1 W0S       0.146400
      5 C8           6.7380    56.0110    -2.5820 ca         1 W0S       0.025100
      6 N            3.6620    52.0200    -2.7890 n8         1 W0S      -1.000200
      7 C3           5.2540    53.7220    -2.0090 ca         1 W0S      -0.018300
      8 C2           5.4720    54.6720    -1.0190 ca         1 W0S      -0.216000
      9 O2           7.4380    57.1430    -2.8690 os         1 W0S      -0.328100
     10 C9           8.8390    57.0290    -2.6600 c3         1 W0S       0.148900
     11 C1           6.2210    55.8140    -1.3000 ca         1 W0S       0.153100
     12 O            6.4890    56.7870    -0.4100 os         1 W0S      -0.325100
     13 C            5.9670    56.6650     0.8970 c3         1 W0S       0.146400
     14 H1           5.1970    51.6710    -1.4520 h1         1 W0S       0.035700
     15 H2           3.9200    52.6390    -0.7490 h1         1 W0S       0.035700
     16 H3           5.5730    53.1600    -4.0400 ha         1 W0S       0.127500
     17 H4           7.4210    54.7790    -6.6770 h1         1 W0S       0.040867
     18 H5           7.3260    53.4090    -5.5580 h1         1 W0S       0.040867
     19 H6           5.8430    54.2390    -6.0770 h1         1 W0S       0.040867
     20 H7           3.2530    51.1230    -2.5620 hn         1 W0S       0.397500
     21 H8           2.8870    52.6590    -2.9170 hn         1 W0S       0.397500
     22 H10          5.0540    54.5110    -0.0340 ha         1 W0S       0.127500
     23 H11          9.2810    57.9920    -2.9080 h1         1 W0S       0.032033
     24 H12          9.0770    56.7920    -1.6200 h1         1 W0S       0.032033
     25 H13          9.2840    56.2650    -3.3030 h1         1 W0S       0.032033
     26 H14          6.2980    57.5440     1.4450 h1         1 W0S       0.040867
     27 H15          4.8740    56.6420     0.9000 h1         1 W0S       0.040867
     28 H16          6.3400    55.7730     1.4080 h1         1 W0S       0.040867
     29 O1           7.0600    55.3220    -4.7730 os         1 W0S      -0.325100
@<TRIPOS>BOND
     1     1     6 1   
     2     1     7 1   
     3     1    14 1   
     4     1    15 1   
     5     2     3 ar  
     6     2     7 ar  
     7     2    16 1   
     8     3     5 ar  
     9     3    29 1   
    10     4    17 1   
    11     4    18 1   
    12     4    19 1   
    13     4    29 1   
    14     5     9 1   
    15     5    11 ar  
    16     6    20 1   
    17     6    21 1   
    18     7     8 ar  
    19     8    11 ar  
    20     8    22 1   
    21     9    10 1   
    22    10    23 1   
    23    10    24 1   
    24    10    25 1   
    25    11    12 1   
    26    12    13 1   
    27    13    26 1   
    28    13    27 1   
    29    13    28 1   
@<TRIPOS>SUBSTRUCTURE
     1 W0S         1 TEMP              0 ****  ****    0 ROOT
