@<TRIPOS>MOLECULE
W0T
   46    47     1     0     0
SMALL
No Charge or Current Charge


@<TRIPOS>ATOM
      1 FAX         -6.9650     0.7490     0.4260 f          1 W0T      -0.087000
      2 CAW         -5.9430     0.1770    -0.2540 c3         1 W0T       0.278000
      3 FAY         -6.1130    -1.1640    -0.1920 f          1 W0T      -0.087000
      4 FAZ         -6.0690     0.5370    -1.5530 f          1 W0T      -0.087000
      5 CAV         -4.5620     0.6140     0.3370 c3         1 W0T       0.079000
      6 FBA         -4.4760     1.9650     0.2630 f          1 W0T      -0.064500
      7 FBB         -4.5610     0.3200     1.6610 f          1 W0T      -0.064500
      8 CAU         -3.2880    -0.0310    -0.3390 c3         1 W0T       0.110000
      9 FBC         -3.3560    -1.3760    -0.1920 f          1 W0T      -0.061000
     10 FBD         -3.3550     0.1790    -1.6760 f          1 W0T      -0.061000
     11 CAT         -1.8820     0.4740     0.1830 c3         1 W0T       0.104000
     12 FBE         -1.7720     1.7990    -0.0790 f          1 W0T      -0.070000
     13 FBF         -1.8570     0.3820     1.5350 f          1 W0T      -0.070000
     14 CAS         -0.6120    -0.2680    -0.3960 c3         1 W0T       0.117000
     15 FBG         -0.6410    -1.5660    -0.0040 f          1 W0T      -0.054000
     16 FBH         -0.6900    -0.3100    -1.7480 f          1 W0T      -0.054000
     17 CAR          0.7870     0.3210    -0.0020 c3         1 W0T       0.051000
     18 FBI          0.9230     1.5670    -0.5220 f          1 W0T      -0.091500
     19 FBJ          0.8580     0.4820     1.3440 f          1 W0T      -0.091500
     20 CAP          1.9450    -0.5840    -0.5120 c          1 W0T       0.584100
     21 OAQ          2.2870    -0.6200    -1.6890 o          1 W0T      -0.574100
     22 N            2.5840    -1.3400     0.4570 ns         1 W0T      -0.412900
     23 CA           3.7950    -2.1690     0.2410 c3         1 W0T      -0.046300
     24 C            3.6950    -3.4900     1.0540 c          1 W0T       0.716000
     25 O            3.3590    -3.4260     2.2290 o          1 W0T      -0.710500
     26 OXT          3.8650    -4.5460     0.4600 o          1 W0T      -0.710500
     27 CB           5.0990    -1.4030     0.5840 c3         1 W0T      -0.011200
     28 CG           5.2690    -0.1100    -0.1740 cc         1 W0T      -0.110400
     29 CD2          4.7460     1.1790     0.1900 ca         1 W0T      -0.090800
     30 CE3          4.0060     1.5760     1.3140 ca         1 W0T      -0.049000
     31 CZ3          3.6050     2.9270     1.3990 ca         1 W0T      -0.153000
     32 CH2          3.9530     3.8400     0.3760 ca         1 W0T      -0.101000
     33 CZ2          4.7070     3.4090    -0.7370 ca         1 W0T      -0.139000
     34 CE2          5.0890     2.0610    -0.7950 ca         1 W0T      -0.051200
     35 NE1          5.8230     1.4320    -1.7830 na         1 W0T      -0.232700
     36 CD1          5.9300     0.0770    -1.3840 cd         1 W0T      -0.171100
     37 H1           2.2200    -1.2710     1.4010 hn         1 W0T       0.315500
     38 H2           3.8350    -2.4510    -0.8180 h1         1 W0T       0.067700
     39 H4           5.1250    -1.2000     1.6610 hc         1 W0T       0.060200
     40 H5           5.9550    -2.0580     0.3800 hc         1 W0T       0.060200
     41 H6           3.7440     0.8680     2.0960 ha         1 W0T       0.115000
     42 H7           3.0260     3.2660     2.2540 ha         1 W0T       0.103000
     43 H8           3.6410     4.8790     0.4480 ha         1 W0T       0.097000
     44 H9           4.9820     4.1040    -1.5260 ha         1 W0T       0.100000
     45 H10          6.2010     1.8550    -2.6250 hn         1 W0T       0.338000
     46 H11          6.4530    -0.6570    -1.9930 h4         1 W0T       0.213000
@<TRIPOS>BOND
     1     1     2 1   
     2     2     3 1   
     3     2     4 1   
     4     2     5 1   
     5     5     6 1   
     6     5     7 1   
     7     5     8 1   
     8     8     9 1   
     9     8    10 1   
    10     8    11 1   
    11    11    12 1   
    12    11    13 1   
    13    11    14 1   
    14    14    15 1   
    15    14    16 1   
    16    14    17 1   
    17    17    18 1   
    18    17    19 1   
    19    17    20 1   
    20    20    21 2   
    21    20    22 1   
    22    22    23 1   
    23    22    37 1   
    24    23    24 1   
    25    23    27 1   
    26    23    38 1   
    27    24    25 1   
    28    24    26 1   
    29    27    28 1   
    30    27    39 1   
    31    27    40 1   
    32    28    29 1   
    33    28    36 2   
    34    29    30 ar  
    35    29    34 ar  
    36    30    31 ar  
    37    30    41 1   
    38    31    32 ar  
    39    31    42 1   
    40    32    33 ar  
    41    32    43 1   
    42    33    34 ar  
    43    33    44 1   
    44    34    35 1   
    45    35    36 1   
    46    35    45 1   
    47    36    46 1   
@<TRIPOS>SUBSTRUCTURE
     1 W0T         1 TEMP              0 ****  ****    0 ROOT
