@<TRIPOS>MOLECULE
W0T
   46    47     1     0     0
SMALL
abcg2


@<TRIPOS>ATOM
      1 FAX         -6.8020     0.4030     1.2830 f          1 W0T      -0.087000
      2 CAW         -5.9830    -0.0730     0.3550 c3         1 W0T       0.278000
      3 FAY         -6.1070    -1.3930     0.3190 f          1 W0T      -0.087000
      4 FAZ         -6.3440     0.4260    -0.8170 f          1 W0T      -0.087000
      5 CAV         -4.5300     0.3390     0.7130 c3         1 W0T       0.079000
      6 FBA         -4.4520     1.6740     0.5940 f          1 W0T      -0.064500
      7 FBB         -4.3190     0.0050     1.9930 f          1 W0T      -0.064500
      8 CAU         -3.4280    -0.3280    -0.1610 c3         1 W0T       0.110000
      9 FBC         -3.3240    -1.6100     0.2240 f          1 W0T      -0.061000
     10 FBD         -3.8160    -0.2960    -1.4450 f          1 W0T      -0.061000
     11 CAT         -2.0300     0.3580    -0.0580 c3         1 W0T       0.104000
     12 FBE         -2.0780     1.4930    -0.7710 f          1 W0T      -0.070000
     13 FBF         -1.7920     0.6670     1.2260 f          1 W0T      -0.070000
     14 CAS         -0.8520    -0.5240    -0.5720 c3         1 W0T       0.117000
     15 FBG         -0.5960    -1.4580     0.3580 f          1 W0T      -0.054000
     16 FBH         -1.2280    -1.1390    -1.7050 f          1 W0T      -0.054000
     17 CAR          0.4730     0.2310    -0.8490 c3         1 W0T       0.051000
     18 FBI          0.3240     0.9940    -1.9440 f          1 W0T      -0.091500
     19 FBJ          0.7230     1.0500     0.1970 f          1 W0T      -0.091500
     20 CAP          1.6370    -0.7550    -1.1000 c          1 W0T       0.584100
     21 OAQ          1.6930    -1.2920    -2.1910 o          1 W0T      -0.574100
     22 N            2.4880    -0.8970    -0.0970 ns         1 W0T      -0.412900
     23 CA           3.5680    -1.8590    -0.1140 c3         1 W0T      -0.046300
     24 C            3.1100    -3.2560     0.3950 c          1 W0T       0.716000
     25 O            1.9090    -3.3990     0.6670 o          1 W0T      -0.710500
     26 OXT          4.0170    -4.1080     0.4570 o          1 W0T      -0.710500
     27 CB           4.7640    -1.3150     0.6740 c3         1 W0T      -0.011200
     28 CG           5.3190    -0.0450     0.1160 cc         1 W0T      -0.110400
     29 CD2          4.9240     1.2980     0.4240 ca         1 W0T      -0.090800
     30 CE3          3.9980     1.8600     1.3110 ca         1 W0T      -0.049000
     31 CZ3          3.8690     3.2330     1.3700 ca         1 W0T      -0.153000
     32 CH2          4.6500     4.0690     0.5530 ca         1 W0T      -0.101000
     33 CZ2          5.5760     3.5460    -0.3300 ca         1 W0T      -0.139000
     34 CE2          5.7030     2.1590    -0.3820 ca         1 W0T      -0.051200
     35 NE1          6.5240     1.3740    -1.1370 na         1 W0T      -0.232700
     36 CD1          6.2960     0.0610    -0.8340 cd         1 W0T      -0.171100
     37 H1           2.2640    -0.4800     0.7930 hn         1 W0T       0.315500
     38 H2           3.8830    -1.9740    -1.1550 h1         1 W0T       0.067700
     39 H4           4.4770    -1.1770     1.7230 hc         1 W0T       0.060200
     40 H5           5.5310    -2.0890     0.6710 hc         1 W0T       0.060200
     41 H6           3.3980     1.2280     1.9540 ha         1 W0T       0.115000
     42 H7           3.1560     3.6780     2.0520 ha         1 W0T       0.103000
     43 H8           4.5250     5.1420     0.6190 ha         1 W0T       0.097000
     44 H9           6.1800     4.1900    -0.9560 ha         1 W0T       0.100000
     45 H10          7.2090     1.7040    -1.7960 hn         1 W0T       0.338000
     46 H11          6.8570    -0.7190    -1.3260 h4         1 W0T       0.213000
@<TRIPOS>BOND
     1     1     2 1   
     2     2     3 1   
     3     2     4 1   
     4     2     5 1   
     5     5     6 1   
     6     5     7 1   
     7     5     8 1   
     8     8     9 1   
     9     8    10 1   
    10     8    11 1   
    11    11    12 1   
    12    11    13 1   
    13    11    14 1   
    14    14    15 1   
    15    14    16 1   
    16    14    17 1   
    17    17    18 1   
    18    17    19 1   
    19    17    20 1   
    20    20    21 2   
    21    20    22 1   
    22    22    23 1   
    23    22    37 1   
    24    23    24 1   
    25    23    27 1   
    26    23    38 1   
    27    24    25 1   
    28    24    26 1   
    29    27    28 1   
    30    27    39 1   
    31    27    40 1   
    32    28    29 1   
    33    28    36 2   
    34    29    30 ar  
    35    29    34 ar  
    36    30    31 ar  
    37    30    41 1   
    38    31    32 ar  
    39    31    42 1   
    40    32    33 ar  
    41    32    43 1   
    42    33    34 ar  
    43    33    44 1   
    44    34    35 1   
    45    35    36 1   
    46    35    45 1   
    47    36    46 1   
@<TRIPOS>SUBSTRUCTURE
     1 W0T         1 TEMP              0 ****  ****    0 ROOT
