@<TRIPOS>MOLECULE
W0V
   31    32     1     0     0
SMALL
bcc


@<TRIPOS>ATOM
      1 N1          -7.0430    14.6800    -0.0760 na         1 W0V      -0.265300
      2 C4          -8.6300    13.7710     1.6180 c3         1 W0V       0.090700
      3 C5          -7.3030    14.3350     1.2120 cc         1 W0V       0.390800
      4 C6          -5.7510    15.1360    -0.1240 ca         1 W0V      -0.075200
      5 C7          -4.9540    15.6110    -1.1580 ca         1 W0V      -0.134000
      6 C8          -3.6630    15.9880    -0.8240 ca         1 W0V      -0.111000
      7 C10         -3.9940    15.4250     1.5170 ca         1 W0V      -0.067000
      8 O           -9.2580    15.7670     3.4260 o          1 W0V      -0.595100
      9 C3          -8.9790    14.6560     3.8530 c          1 W0V       0.674100
     10 C1          -8.8800    14.3640     5.3380 c3         1 W0V      -0.134700
     11 C2          -7.6930    15.1330     5.9180 c3         1 W0V      -0.083600
     12 C          -10.1840    14.7350     6.0390 c3         1 W0V      -0.083600
     13 N           -8.7380    13.6120     3.0380 ns         1 W0V      -0.555900
     14 N2          -6.2890    14.5300     2.0060 nd         1 W0V      -0.574100
     15 C11         -5.2940    15.0370     1.2010 ca         1 W0V       0.071400
     16 C9          -3.1900    15.8980     0.4930 ca         1 W0V      -0.153000
     17 H1          -7.6840    14.6100    -0.8500 hn         1 W0V       0.304700
     18 H2          -9.4290    14.4180     1.2510 h1         1 W0V       0.067200
     19 H3          -8.7770    12.7990     1.1440 h1         1 W0V       0.067200
     20 H4          -5.3160    15.6810    -2.1750 ha         1 W0V       0.134000
     21 H5          -3.0040    16.3600    -1.5980 ha         1 W0V       0.130000
     22 H6          -3.6270    15.3580     2.5330 ha         1 W0V       0.145000
     23 H7          -8.6990    13.2960     5.4840 hc         1 W0V       0.045700
     24 H8          -7.6130    14.9500     6.9890 hc         1 W0V       0.043367
     25 H9          -6.7550    14.8260     5.4530 hc         1 W0V       0.043367
     26 H10         -7.8100    16.2070     5.7680 hc         1 W0V       0.043367
     27 H11        -10.1190    14.4950     7.1010 hc         1 W0V       0.043367
     28 H12        -10.3900    15.8010     5.9490 hc         1 W0V       0.043367
     29 H13        -11.0330    14.1890     5.6260 hc         1 W0V       0.043367
     30 H14         -8.4180    12.7450     3.4370 hn         1 W0V       0.319500
     31 H16         -2.1770    16.2080     0.7110 ha         1 W0V       0.131000
@<TRIPOS>BOND
     1     1     3 1   
     2     1     4 1   
     3     1    17 1   
     4     2     3 1   
     5     2    13 1   
     6     2    18 1   
     7     2    19 1   
     8     3    14 2   
     9     4     5 ar  
    10     4    15 ar  
    11     5     6 ar  
    12     5    20 1   
    13     6    16 ar  
    14     6    21 1   
    15     7    15 ar  
    16     7    16 ar  
    17     7    22 1   
    18     8     9 2   
    19     9    10 1   
    20     9    13 1   
    21    10    11 1   
    22    10    12 1   
    23    10    23 1   
    24    11    24 1   
    25    11    25 1   
    26    11    26 1   
    27    12    27 1   
    28    12    28 1   
    29    12    29 1   
    30    13    30 1   
    31    14    15 1   
    32    16    31 1   
@<TRIPOS>SUBSTRUCTURE
     1 W0V         1 TEMP              0 ****  ****    0 ROOT
