@<TRIPOS>MOLECULE
W0V
   31    32     1     0     0
SMALL
No Charge or Current Charge


@<TRIPOS>ATOM
      1 N1          -6.8290    15.0860     1.1640 na         1 W0V      -0.315600
      2 C4          -8.0070    12.9640     1.9940 c3         1 W0V       0.090700
      3 C5          -6.8480    13.7070     1.3630 cc         1 W0V       0.390800
      4 C6          -5.6380    15.3910     0.5850 ca         1 W0V      -0.075200
      5 C7          -5.1180    16.6260     0.1820 ca         1 W0V      -0.116000
      6 C8          -3.8320    16.6310    -0.3980 ca         1 W0V      -0.093000
      7 C10         -3.6800    14.1940    -0.1320 ca         1 W0V      -0.049000
      8 O           -9.2290    15.3790     2.9280 o          1 W0V      -0.595100
      9 C3          -8.8960    14.5400     3.7550 c          1 W0V       0.607100
     10 C1          -9.1000    14.7320     5.2720 c3         1 W0V      -0.134700
     11 C2          -8.2870    15.9400     5.7960 c3         1 W0V      -0.083600
     12 C          -10.6020    14.8480     5.6250 c3         1 W0V      -0.083600
     13 N           -8.3020    13.3540     3.3860 ns         1 W0V      -0.488900
     14 N2          -5.7030    13.1400     0.9250 nd         1 W0V      -0.574100
     15 C11         -4.9600    14.2140     0.4420 ca         1 W0V       0.071400
     16 C9          -3.1160    15.4190    -0.5540 ca         1 W0V      -0.135000
     17 H1          -7.5670    15.7240     1.4360 hn         1 W0V       0.355000
     18 H2          -8.9040    13.1290     1.3820 h1         1 W0V       0.067200
     19 H3          -7.7910    11.8890     1.9730 h1         1 W0V       0.067200
     20 H4          -5.6820    17.5470     0.3100 ha         1 W0V       0.116000
     21 H5          -3.3890    17.5690    -0.7260 ha         1 W0V       0.112000
     22 H6          -3.1380    13.2590    -0.2470 ha         1 W0V       0.127000
     23 H7          -8.7170    13.8390     5.7810 hc         1 W0V       0.045700
     24 H8          -8.3890    16.0330     6.8840 hc         1 W0V       0.043367
     25 H9          -7.2220    15.8180     5.5630 hc         1 W0V       0.043367
     26 H10         -8.6340    16.8750     5.3380 hc         1 W0V       0.043367
     27 H11        -10.7410    14.9240     6.7100 hc         1 W0V       0.043367
     28 H12        -11.0480    15.7350     5.1590 hc         1 W0V       0.043367
     29 H13        -11.1500    13.9650     5.2740 hc         1 W0V       0.043367
     30 H14         -8.0510    12.7170     4.1330 hn         1 W0V       0.319500
     31 H16         -2.1250    15.4310    -1.0020 ha         1 W0V       0.113000
@<TRIPOS>BOND
     1     1     3 1   
     2     1     4 1   
     3     1    17 1   
     4     2     3 1   
     5     2    13 1   
     6     2    18 1   
     7     2    19 1   
     8     3    14 2   
     9     4     5 ar  
    10     4    15 ar  
    11     5     6 ar  
    12     5    20 1   
    13     6    16 ar  
    14     6    21 1   
    15     7    15 ar  
    16     7    16 ar  
    17     7    22 1   
    18     8     9 2   
    19     9    10 1   
    20     9    13 1   
    21    10    11 1   
    22    10    12 1   
    23    10    23 1   
    24    11    24 1   
    25    11    25 1   
    26    11    26 1   
    27    12    27 1   
    28    12    28 1   
    29    12    29 1   
    30    13    30 1   
    31    14    15 1   
    32    16    31 1   
@<TRIPOS>SUBSTRUCTURE
     1 W0V         1 TEMP              0 ****  ****    0 ROOT
