@<TRIPOS>MOLECULE
W0X
   26    26     1     0     0
SMALL
abcg2


@<TRIPOS>ATOM
      1 C7          -4.5420    17.0520   -34.4650 c3         1 W0X      -0.206400
      2 C8          -3.6900    18.1370   -33.8300 c3         1 W0X      -0.202400
      3 C9          -4.5220    19.3220   -33.2780 c          1 W0X       0.721000
      4 O1          -4.5690    14.7760   -35.7870 o          1 W0X      -0.546000
      5 C1          -2.5910    12.4750   -34.3200 ca         1 W0X      -0.078000
      6 C5          -0.6670    11.4620   -35.3690 ca         1 W0X      -0.092000
      7 C6          -2.7070    14.9470   -33.8990 c3         1 W0X      -0.250100
      8 C4          -0.0800    12.7180   -35.4360 ca         1 W0X      -0.005900
      9 C3          -0.7170    13.8510   -34.9560 ca         1 W0X      -0.066000
     10 O3          -3.8570    20.2360   -32.7310 o          1 W0X      -0.724000
     11 C2          -1.9870    13.7300   -34.3920 ca         1 W0X      -0.051300
     12 O2          -5.7690    19.2780   -33.4160 o          1 W0X      -0.724000
     13 S           -3.6170    15.7390   -35.2530 s6         1 W0X       1.029000
     14 O           -2.6530    16.3060   -36.1840 o          1 W0X      -0.546000
     15 C           -1.9320    11.3510   -34.8020 ca         1 W0X      -0.113000
     16 H1          -5.1600    17.4450   -35.2740 h1         1 W0X       0.103200
     17 H2          -5.1950    16.5560   -33.7470 h1         1 W0X       0.103200
     18 H3          -3.1020    17.7370   -33.0010 hc         1 W0X       0.037700
     19 H4          -2.9790    18.5360   -34.5560 hc         1 W0X       0.037700
     20 H5          -3.5760    12.3820   -33.8820 ha         1 W0X       0.123000
     21 H6          -0.1510    10.5900   -35.7450 ha         1 W0X       0.120000
     22 H7          -2.0260    15.7040   -33.5120 h1         1 W0X       0.102200
     23 H8          -3.4550    14.7050   -33.1450 h1         1 W0X       0.102200
     24 H9          -0.2380    14.8190   -35.0150 ha         1 W0X       0.143000
     25 H11         -2.4030    10.3780   -34.7380 ha         1 W0X       0.112000
     26 BR           1.6650    12.8910   -36.2130 br         1 W0X      -0.128100
@<TRIPOS>BOND
     1     1     2 1   
     2     1    13 1   
     3     1    16 1   
     4     1    17 1   
     5     2     3 1   
     6     2    18 1   
     7     2    19 1   
     8     3    10 1   
     9     3    12 1   
    10     4    13 2   
    11     5    11 ar  
    12     5    15 ar  
    13     5    20 1   
    14     6     8 ar  
    15     6    15 ar  
    16     6    21 1   
    17     7    11 1   
    18     7    13 1   
    19     7    22 1   
    20     7    23 1   
    21     8     9 ar  
    22     8    26 1   
    23     9    11 ar  
    24     9    24 1   
    25    13    14 2   
    26    15    25 1   
@<TRIPOS>SUBSTRUCTURE
     1 W0X         1 TEMP              0 ****  ****    0 ROOT
