@<TRIPOS>MOLECULE
W0X
   26    26     1     0     0
SMALL
No Charge or Current Charge


@<TRIPOS>ATOM
      1 C7          -4.6070    17.0880   -34.4120 c3         1 W0X      -0.206400
      2 C8          -3.6630    18.2080   -33.8680 c3         1 W0X      -0.202400
      3 C9          -4.4890    19.3500   -33.2530 c          1 W0X       0.721000
      4 O1          -4.7980    14.7130   -35.5890 o          1 W0X      -0.546000
      5 C1          -2.5000    12.4510   -34.2240 ca         1 W0X      -0.078000
      6 C5          -0.5780    11.4230   -35.3100 ca         1 W0X      -0.092000
      7 C6          -2.6970    14.9750   -33.9830 c3         1 W0X      -0.250100
      8 C4          -0.0300    12.6970   -35.5350 ca         1 W0X      -0.005900
      9 C3          -0.7140    13.8470   -35.1060 ca         1 W0X      -0.066000
     10 O3          -4.7950    19.2660   -32.0740 o          1 W0X      -0.724000
     11 C2          -1.9540    13.7290   -34.4500 ca         1 W0X      -0.051300
     12 O2          -4.8610    20.2510   -33.9890 o          1 W0X      -0.724000
     13 S           -3.7720    15.7060   -35.2410 s6         1 W0X       1.029000
     14 O           -2.9190    16.2540   -36.3050 o          1 W0X      -0.546000
     15 C           -1.8140    11.3010   -34.6540 ca         1 W0X      -0.113000
     16 H1          -5.2970    17.5020   -35.1550 h1         1 W0X       0.103200
     17 H2          -5.1910    16.6480   -33.5970 h1         1 W0X       0.103200
     18 H3          -3.0410    17.7420   -33.0950 hc         1 W0X       0.037700
     19 H4          -3.0970    18.5790   -34.7310 hc         1 W0X       0.037700
     20 H5          -3.4580    12.3470   -33.7180 ha         1 W0X       0.123000
     21 H6          -0.0470    10.5340   -35.6430 ha         1 W0X       0.120000
     22 H7          -1.9860    15.7560   -33.6930 h1         1 W0X       0.102200
     23 H8          -3.3400    14.7450   -33.1260 h1         1 W0X       0.102200
     24 H9          -0.2820    14.8290   -35.2860 ha         1 W0X       0.143000
     25 H11         -2.2420    10.3160   -34.4780 ha         1 W0X       0.112000
     26 Br           1.6520    12.8660   -36.4290 br         1 W0X      -0.128100
@<TRIPOS>BOND
     1     1     2 1   
     2     1    13 1   
     3     1    16 1   
     4     1    17 1   
     5     2     3 1   
     6     2    18 1   
     7     2    19 1   
     8     3    10 1   
     9     3    12 1   
    10     4    13 2   
    11     5    11 ar  
    12     5    15 ar  
    13     5    20 1   
    14     6     8 ar  
    15     6    15 ar  
    16     6    21 1   
    17     7    11 1   
    18     7    13 1   
    19     7    22 1   
    20     7    23 1   
    21     8     9 ar  
    22     8    26 1   
    23     9    11 ar  
    24     9    24 1   
    25    13    14 2   
    26    15    25 1   
@<TRIPOS>SUBSTRUCTURE
     1 W0X         1 TEMP              0 ****  ****    0 ROOT
