@<TRIPOS>MOLECULE
W0Y
   24    24     1     0     0
SMALL
abcg2


@<TRIPOS>ATOM
      1 N1          -1.4660    15.8910    -4.5250 n8         1 W0Y      -1.005100
      2 C4          -4.5300    15.4510    -3.4320 ca         1 W0Y      -0.019000
      3 C5          -3.4320    14.6060    -3.3270 ca         1 W0Y      -0.252500
      4 C6          -3.2090    13.8530    -2.1860 ca         1 W0Y      -0.019000
      5 C7          -4.0930    13.9630    -1.1230 ca         1 W0Y      -0.097500
      6 O2          -3.0520    14.6100    -5.9410 o          1 W0Y      -0.540500
      7 S           -2.3110    14.4840    -4.6950 sy         1 W0Y       1.125600
      8 O1          -1.4920    13.2980    -4.4890 o          1 W0Y      -0.540500
      9 C3          -5.4130    15.5390    -2.3730 ca         1 W0Y      -0.097500
     10 C2          -5.1940    14.8090    -1.2060 ca         1 W0Y      -0.096600
     11 C1          -6.1940    14.9360    -0.0960 c          1 W0Y       0.602700
     12 O           -7.3630    15.2080    -0.3340 o          1 W0Y      -0.590100
     13 N           -5.7290    14.7410     1.1430 ns         1 W0Y      -0.501900
     14 C           -6.5840    14.8250     2.3050 c3         1 W0Y       0.093300
     15 H1          -0.8130    15.8670    -3.7480 hn         1 W0Y       0.474500
     16 H2          -0.9850    16.1450    -5.3830 hn         1 W0Y       0.474500
     17 H4          -2.3650    13.1810    -2.1150 ha         1 W0Y       0.141000
     18 H5          -3.9200    13.3570    -0.2430 ha         1 W0Y       0.130500
     19 H6          -6.2760    16.1860    -2.4520 ha         1 W0Y       0.130500
     20 H7          -4.7410    14.6310     1.2940 hn         1 W0Y       0.318500
     21 H8          -5.9850    14.6170     3.1860 h1         1 W0Y       0.043033
     22 H9          -7.0250    15.8170     2.4120 h1         1 W0Y       0.043033
     23 H10         -7.3910    14.0940     2.2570 h1         1 W0Y       0.043033
     24 H3          -4.7030    16.0330    -4.3270 ha         1 W0Y       0.141000
@<TRIPOS>BOND
     1     1     7 1   
     2     1    15 1   
     3     1    16 1   
     4     2     3 ar  
     5     2     9 ar  
     6     2    24 1   
     7     3     4 ar  
     8     3     7 1   
     9     4     5 ar  
    10     4    17 1   
    11     5    10 ar  
    12     5    18 1   
    13     6     7 2   
    14     7     8 2   
    15     9    10 ar  
    16     9    19 1   
    17    10    11 1   
    18    11    12 2   
    19    11    13 1   
    20    13    14 1   
    21    13    20 1   
    22    14    21 1   
    23    14    22 1   
    24    14    23 1   
@<TRIPOS>SUBSTRUCTURE
     1 W0Y         1 TEMP              0 ****  ****    0 ROOT
