@<TRIPOS>MOLECULE
W0Y
   24    24     1     0     0
SMALL
No Charge or Current Charge


@<TRIPOS>ATOM
      1 N1          -1.2940    15.8040    -4.5540 n8         1 W0Y      -1.005100
      2 C4          -4.6060    15.3370    -3.5040 ca         1 W0Y      -0.019000
      3 C5          -3.3870    14.6580    -3.3150 ca         1 W0Y      -0.252500
      4 C6          -3.0790    14.1280    -2.0470 ca         1 W0Y      -0.019000
      5 C7          -3.9830    14.2710    -0.9790 ca         1 W0Y      -0.097500
      6 O2          -2.9050    14.6510    -5.9640 o          1 W0Y      -0.540500
      7 S           -2.2310    14.4740    -4.6800 sy         1 W0Y       1.125600
      8 O1          -1.3000    13.3760    -4.4330 o          1 W0Y      -0.540500
      9 C3          -5.5080    15.4790    -2.4360 ca         1 W0Y      -0.097500
     10 C2          -5.2140    14.9500    -1.1580 ca         1 W0Y      -0.096600
     11 C1          -6.2160    15.1260    -0.0290 c          1 W0Y       0.602700
     12 O           -7.2780    15.7140    -0.1850 o          1 W0Y      -0.590100
     13 N           -5.8770    14.5890     1.1960 ns         1 W0Y      -0.501900
     14 C           -6.7210    14.6640     2.3920 c3         1 W0Y       0.093300
     15 H1          -0.3700    15.3790    -4.5590 hn         1 W0Y       0.474500
     16 H2          -1.3650    16.1680    -5.5020 hn         1 W0Y       0.474500
     17 H4          -2.1390    13.6030    -1.8830 ha         1 W0Y       0.141000
     18 H5          -3.7060    13.8470    -0.0180 ha         1 W0Y       0.130500
     19 H6          -6.4430    16.0080    -2.6070 ha         1 W0Y       0.130500
     20 H7          -4.9860    14.1150     1.2620 hn         1 W0Y       0.318500
     21 H8          -6.2180    14.1600     3.2270 h1         1 W0Y       0.043033
     22 H9          -6.8960    15.7150     2.6560 h1         1 W0Y       0.043033
     23 H10         -7.6820    14.1710     2.1980 h1         1 W0Y       0.043033
     24 H3          -4.8600    15.7580    -4.4760 ha         1 W0Y       0.141000
@<TRIPOS>BOND
     1     1     7 1   
     2     1    15 1   
     3     1    16 1   
     4     2     3 ar  
     5     2     9 ar  
     6     2    24 1   
     7     3     4 ar  
     8     3     7 1   
     9     4     5 ar  
    10     4    17 1   
    11     5    10 ar  
    12     5    18 1   
    13     6     7 2   
    14     7     8 2   
    15     9    10 ar  
    16     9    19 1   
    17    10    11 1   
    18    11    12 2   
    19    11    13 1   
    20    13    14 1   
    21    13    20 1   
    22    14    21 1   
    23    14    22 1   
    24    14    23 1   
@<TRIPOS>SUBSTRUCTURE
     1 W0Y         1 TEMP              0 ****  ****    0 ROOT
