@<TRIPOS>MOLECULE
W0Z
   35    36     1     0     0
SMALL
abcg2


@<TRIPOS>ATOM
      1 N1          23.8850    15.8020    -6.9260 ns         1 W0Z      -0.485500
      2 C5          22.3150    17.6800    -6.9170 c6         1 W0Z      -0.164400
      3 C6          26.8460    19.1600    -7.8710 c          1 W0Z       0.641700
      4 O2          28.0000    21.1840   -12.2470 os         1 W0Z      -0.346100
      5 F1          26.1930    20.1180   -10.6040 f          1 W0Z      -0.170000
      6 F2          31.3060    20.6110    -8.9260 f          1 W0Z      -0.177000
      7 C1          23.2840    18.3260    -7.8920 c6         1 W0Z      -0.084400
      8 O1          27.1570    19.1270    -6.6900 o          1 W0Z      -0.593100
      9 C3          24.9620    16.5550    -7.3370 c          1 W0Z       0.554000
     10 C2          24.7140    18.0530    -7.4470 c6         1 W0Z       0.032700
     11 C7          27.7750    19.7590    -8.8720 ca         1 W0Z      -0.215600
     12 C4          22.5910    16.2210    -6.6840 c          1 W0Z       0.579000
     13 O3          26.0260    16.0380    -7.5710 o          1 W0Z      -0.497000
     14 N2          25.6710    18.6690    -8.3180 ns         1 W0Z      -0.490900
     15 C8          29.1070    19.9260    -8.4770 ca         1 W0Z      -0.029000
     16 C10         29.7100    20.9250   -10.6130 ca         1 W0Z       0.311000
     17 C12         27.4500    20.2070   -10.1460 ca         1 W0Z       0.216000
     18 C11         28.3730    20.7770   -11.0090 ca         1 W0Z      -0.021900
     19 C9          30.0270    20.4780    -9.3250 ca         1 W0Z       0.069000
     20 O4          21.7610    15.4330    -6.2970 o          1 W0Z      -0.513000
     21 N3          30.6300    21.5080   -11.4270 nv         1 W0Z      -1.068000
     22 C13         27.5390    22.5340   -12.3070 c3         1 W0Z       0.138900
     23 H4          24.0620    14.8120    -6.7930 hn         1 W0Z       0.330500
     24 H6          21.2830    17.7800    -7.2540 hc         1 W0Z       0.083700
     25 H5          22.3750    18.1800    -5.9440 hc         1 W0Z       0.083700
     26 H2          23.1150    19.4020    -7.9250 hc         1 W0Z       0.064200
     27 H1          23.1230    17.9400    -8.9020 hc         1 W0Z       0.064200
     28 H3          24.8470    18.4630    -6.4400 h1         1 W0Z       0.107700
     29 H7          25.5000    18.5930    -9.3070 hn         1 W0Z       0.330500
     30 H8          29.4190    19.6060    -7.4920 ha         1 W0Z       0.162000
     31 H9          31.6020    21.3460   -11.2240 hn         1 W0Z       0.480500
     32 H10         30.4220    21.5190   -12.4120 hn         1 W0Z       0.480500
     33 H12         27.3400    22.7540   -13.3530 h1         1 W0Z       0.042367
     34 H13         26.6180    22.6680   -11.7360 h1         1 W0Z       0.042367
     35 H11         28.2920    23.2320   -11.9350 h1         1 W0Z       0.042367
@<TRIPOS>BOND
     1     1     9 1   
     2     1    12 1   
     3     1    23 1   
     4     2     7 1   
     5     2    12 1   
     6     2    24 1   
     7     2    25 1   
     8     3     8 2   
     9     3    11 1   
    10     3    14 1   
    11     4    18 1   
    12     4    22 1   
    13     5    17 1   
    14     6    19 1   
    15     7    10 1   
    16     7    26 1   
    17     7    27 1   
    18     9    10 1   
    19     9    13 2   
    20    10    14 1   
    21    10    28 1   
    22    11    15 ar  
    23    11    17 ar  
    24    12    20 2   
    25    14    29 1   
    26    15    19 ar  
    27    15    30 1   
    28    16    18 ar  
    29    16    19 ar  
    30    16    21 1   
    31    17    18 ar  
    32    21    31 1   
    33    21    32 1   
    34    22    33 1   
    35    22    34 1   
    36    22    35 1   
@<TRIPOS>SUBSTRUCTURE
     1 W0Z         1 TEMP              0 ****  ****    0 ROOT
