@<TRIPOS>MOLECULE
W0Z
   35    36     1     0     0
SMALL
No Charge or Current Charge


@<TRIPOS>ATOM
      1 N1          23.6720    15.9200    -7.4080 ns         1 W0Z      -0.485500
      2 C5          22.2940    17.8860    -6.8240 c6         1 W0Z      -0.164400
      3 C6          27.1430    18.9980    -7.8030 c          1 W0Z       0.641700
      4 O2          28.2160    21.6230   -12.0490 os         1 W0Z      -0.346100
      5 F1          26.3270    20.2630   -10.3320 f          1 W0Z      -0.170000
      6 F2          31.6470    20.5200    -8.8780 f          1 W0Z      -0.177000
      7 C1          23.3620    18.7310    -7.5610 c6         1 W0Z      -0.084400
      8 O1          27.5750    18.4940    -6.7750 o          1 W0Z      -0.593100
      9 C3          24.8420    16.6180    -7.5540 c          1 W0Z       0.554000
     10 C2          24.7830    18.1630    -7.3270 c6         1 W0Z       0.032700
     11 C7          28.0600    19.7330    -8.7660 ca         1 W0Z      -0.215600
     12 C4          22.4330    16.3790    -7.0660 c          1 W0Z       0.579000
     13 O3          25.8760    16.0220    -7.8110 o          1 W0Z      -0.497000
     14 N2          25.8000    18.9210    -8.0970 ns         1 W0Z      -0.490900
     15 C8          29.4290    19.8140    -8.4240 ca         1 W0Z      -0.029000
     16 C10         29.9210    21.0740   -10.4550 ca         1 W0Z       0.311000
     17 C12         27.6310    20.3360    -9.9820 ca         1 W0Z       0.216000
     18 C11         28.5580    21.0100   -10.8360 ca         1 W0Z      -0.021900
     19 C9          30.3440    20.4720    -9.2520 ca         1 W0Z       0.069000
     20 O4          21.4780    15.6230    -7.0120 o          1 W0Z      -0.513000
     21 N3          30.8330    21.7250   -11.2690 nv         1 W0Z      -1.068000
     22 C13         26.8900    21.6730   -12.6070 c3         1 W0Z       0.138900
     23 H4          23.7370    14.9260    -7.5660 hn         1 W0Z       0.330500
     24 H6          21.2650    18.2060    -7.0330 hc         1 W0Z       0.083700
     25 H5          22.4560    18.0270    -5.7470 hc         1 W0Z       0.083700
     26 H2          23.3110    19.7780    -7.2300 hc         1 W0Z       0.064200
     27 H1          23.1400    18.7310    -8.6380 hc         1 W0Z       0.064200
     28 H3          25.0100    18.2860    -6.2580 h1         1 W0Z       0.107700
     29 H7          25.5110    19.3700    -8.9570 hn         1 W0Z       0.330500
     30 H8          29.8000    19.3640    -7.5040 ha         1 W0Z       0.162000
     31 H9          31.8310    21.6080   -11.1040 hn         1 W0Z       0.480500
     32 H10         30.5340    22.0160   -12.1980 hn         1 W0Z       0.480500
     33 H12         26.9020    22.2150   -13.5610 h1         1 W0Z       0.042367
     34 H13         26.5070    20.6630   -12.8020 h1         1 W0Z       0.042367
     35 H11         26.1990    22.1970   -11.9340 h1         1 W0Z       0.042367
@<TRIPOS>BOND
     1     1     9 1   
     2     1    12 1   
     3     1    23 1   
     4     2     7 1   
     5     2    12 1   
     6     2    24 1   
     7     2    25 1   
     8     3     8 2   
     9     3    11 1   
    10     3    14 1   
    11     4    18 1   
    12     4    22 1   
    13     5    17 1   
    14     6    19 1   
    15     7    10 1   
    16     7    26 1   
    17     7    27 1   
    18     9    10 1   
    19     9    13 2   
    20    10    14 1   
    21    10    28 1   
    22    11    15 ar  
    23    11    17 ar  
    24    12    20 2   
    25    14    29 1   
    26    15    19 ar  
    27    15    30 1   
    28    16    18 ar  
    29    16    19 ar  
    30    16    21 1   
    31    17    18 ar  
    32    21    31 1   
    33    21    32 1   
    34    22    33 1   
    35    22    34 1   
    36    22    35 1   
@<TRIPOS>SUBSTRUCTURE
     1 W0Z         1 TEMP              0 ****  ****    0 ROOT
