@<TRIPOS>MOLECULE
W10
   55    56     1     0     0
SMALL
abcg2


@<TRIPOS>ATOM
      1 FBQ          7.8110    -0.1270     1.5400 f          1 W10      -0.083333
      2 CAZ          7.7670     0.2810     0.2790 c3         1 W10       0.283000
      3 FBR          7.8460     1.6020     0.2470 f          1 W10      -0.083333
      4 FBS          8.8140    -0.2180    -0.3640 f          1 W10      -0.083333
      5 CAY          6.4720    -0.2170    -0.4190 c3         1 W10       0.080000
      6 FBO          6.4320     0.3430    -1.6380 f          1 W10      -0.062000
      7 FBP          6.5750    -1.5460    -0.5570 f          1 W10      -0.062000
      8 CAX          5.1540     0.0990     0.3450 c3         1 W10       0.111000
      9 FBA          5.0870    -0.7250     1.4020 f          1 W10      -0.061000
     10 FBB          5.2000     1.3630     0.7880 f          1 W10      -0.061000
     11 CAW          3.8650    -0.0640    -0.5190 c3         1 W10       0.113000
     12 FBC          3.7760     1.0000    -1.3300 f          1 W10      -0.061000
     13 FBD          3.9750    -1.1700    -1.2690 f          1 W10      -0.061000
     14 CAV          2.5540    -0.1800     0.3240 c3         1 W10       0.113000
     15 FBE          2.4920    -1.4240     0.8210 f          1 W10      -0.060500
     16 FBF          2.6100     0.6910     1.3410 f          1 W10      -0.060500
     17 CAU          1.2560     0.1130    -0.4930 c3         1 W10       0.112000
     18 FBG          1.1710     1.4400    -0.6650 f          1 W10      -0.062000
     19 FBH          1.3530    -0.4750    -1.6940 f          1 W10      -0.062000
     20 CAT         -0.0510    -0.3980     0.1920 c3         1 W10       0.109000
     21 FBI         -0.1150    -1.7270     0.0200 f          1 W10      -0.065500
     22 FBJ          0.0150    -0.1380     1.5070 f          1 W10      -0.065500
     23 CAS         -1.3510     0.2520    -0.3690 c3         1 W10       0.107000
     24 FBK         -1.4370     1.5000     0.1280 f          1 W10      -0.065000
     25 FBL         -1.2560     0.3340    -1.7060 f          1 W10      -0.065000
     26 CAR         -2.6720    -0.4810    -0.0210 c3         1 W10       0.059000
     27 FBM         -2.7520    -1.6050    -0.7490 f          1 W10      -0.084000
     28 FBN         -2.6360    -0.8290     1.2840 f          1 W10      -0.084000
     29 CAP         -3.8940     0.4090    -0.3490 c          1 W10       0.576100
     30 OAQ         -4.2160     0.5090    -1.5180 o          1 W10      -0.587100
     31 N           -4.4480     1.0040     0.6960 ns         1 W10      -0.428900
     32 CA          -5.5780     1.9040     0.6250 c3         1 W10      -0.042300
     33 C           -5.4370     2.9810     1.7270 c          1 W10       0.717000
     34 OXT         -6.1770     3.9710     1.6050 o          1 W10      -0.713000
     35 O           -4.6380     2.7340     2.6500 o          1 W10      -0.713000
     36 CB          -6.9100     1.1540     0.8300 c3         1 W10      -0.012200
     37 CG          -7.0920    -0.0070    -0.0870 cc         1 W10      -0.112400
     38 CD2         -6.5850    -1.3360     0.0900 ca         1 W10      -0.091800
     39 CE3         -5.8670    -1.9750     1.1080 ca         1 W10      -0.055000
     40 CZ3         -5.5210    -3.3030     0.9550 ca         1 W10      -0.156000
     41 CH2         -5.8800    -4.0160    -0.2010 ca         1 W10      -0.100000
     42 CZ2         -6.5920    -3.4150    -1.2210 ca         1 W10      -0.138000
     43 CE2         -6.9340    -2.0730    -1.0640 ca         1 W10      -0.045200
     44 NE1         -7.6190    -1.2320    -1.8900 na         1 W10      -0.228700
     45 CD1         -7.7140    -0.0010    -1.3030 cd         1 W10      -0.163100
     46 H1          -4.0380     0.9380     1.6180 hn         1 W10       0.355500
     47 H2          -5.5880     2.3760    -0.3590 h1         1 W10       0.065700
     48 H4          -6.9630     0.8170     1.8710 hc         1 W10       0.056700
     49 H5          -7.7170     1.8750     0.6960 hc         1 W10       0.056700
     50 H6          -5.5850    -1.4400     2.0060 ha         1 W10       0.122000
     51 H7          -4.9610    -3.8020     1.7350 ha         1 W10       0.102000
     52 H8          -5.5930    -5.0560    -0.2950 ha         1 W10       0.095000
     53 H9          -6.8720    -3.9670    -2.1100 ha         1 W10       0.099000
     54 H10         -8.0180    -1.4800    -2.7790 hn         1 W10       0.337000
     55 H11         -8.2240     0.8060    -1.8060 h4         1 W10       0.208000
@<TRIPOS>BOND
     1     1     2 1   
     2     2     3 1   
     3     2     4 1   
     4     2     5 1   
     5     5     6 1   
     6     5     7 1   
     7     5     8 1   
     8     8     9 1   
     9     8    10 1   
    10     8    11 1   
    11    11    12 1   
    12    11    13 1   
    13    11    14 1   
    14    14    15 1   
    15    14    16 1   
    16    14    17 1   
    17    17    18 1   
    18    17    19 1   
    19    17    20 1   
    20    20    21 1   
    21    20    22 1   
    22    20    23 1   
    23    23    24 1   
    24    23    25 1   
    25    23    26 1   
    26    26    27 1   
    27    26    28 1   
    28    26    29 1   
    29    29    30 2   
    30    29    31 1   
    31    31    32 1   
    32    31    46 1   
    33    32    33 1   
    34    32    36 1   
    35    32    47 1   
    36    33    34 1   
    37    33    35 1   
    38    36    37 1   
    39    36    48 1   
    40    36    49 1   
    41    37    38 1   
    42    37    45 2   
    43    38    39 ar  
    44    38    43 ar  
    45    39    40 ar  
    46    39    50 1   
    47    40    41 ar  
    48    40    51 1   
    49    41    42 ar  
    50    41    52 1   
    51    42    43 ar  
    52    42    53 1   
    53    43    44 1   
    54    44    45 1   
    55    44    54 1   
    56    45    55 1   
@<TRIPOS>SUBSTRUCTURE
     1 W10         1 TEMP              0 ****  ****    0 ROOT
