@<TRIPOS>MOLECULE
W10
   55    56     1     0     0
SMALL
No Charge or Current Charge


@<TRIPOS>ATOM
      1 FBQ          8.0400    -1.5500     0.7060 f          1 W10      -0.083333
      2 CAZ          7.9860    -0.2460     0.3460 c3         1 W10       0.283000
      3 FBR          8.0730     0.4870     1.4810 f          1 W10      -0.083333
      4 FBS          9.0880     0.0200    -0.3940 f          1 W10      -0.083333
      5 CAY          6.6810     0.0790    -0.4540 c3         1 W10       0.080000
      6 FBO          6.7080     1.3910    -0.7960 f          1 W10      -0.062000
      7 FBP          6.7260    -0.6040    -1.6250 f          1 W10      -0.062000
      8 CAX          5.3210    -0.2430     0.2820 c3         1 W10       0.111000
      9 FBA          5.2790    -1.5720     0.5450 f          1 W10      -0.061000
     10 FBB          5.3370     0.3540     1.4990 f          1 W10      -0.061000
     11 CAW          3.9950     0.1770    -0.4720 c3         1 W10       0.113000
     12 FBC          3.9870     1.5250    -0.6110 f          1 W10      -0.061000
     13 FBD          4.0390    -0.3060    -1.7370 f          1 W10      -0.061000
     14 CAV          2.6330    -0.2790     0.1940 c3         1 W10       0.113000
     15 FBE          2.5810    -1.6330     0.1860 f          1 W10      -0.060500
     16 FBF          2.6480     0.0650     1.5040 f          1 W10      -0.060500
     17 CAU          1.3070     0.2890    -0.4600 c3         1 W10       0.112000
     18 FBG          1.2870     1.6340    -0.2990 f          1 W10      -0.062000
     19 FBH          1.3600     0.0960    -1.8000 f          1 W10      -0.062000
     20 CAT         -0.0550    -0.3100     0.0810 c3         1 W10       0.109000
     21 FBI         -0.1050    -1.6270    -0.2350 f          1 W10      -0.065500
     22 FBJ         -0.0450    -0.2740     1.4350 f          1 W10      -0.065500
     23 CAS         -1.3780     0.3860    -0.4330 c3         1 W10       0.107000
     24 FBK         -1.4170     1.6590     0.0330 f          1 W10      -0.065000
     25 FBL         -1.3310     0.5090    -1.7810 f          1 W10      -0.065000
     26 CAR         -2.7310    -0.3070    -0.0470 c3         1 W10       0.059000
     27 FBM         -2.8100    -1.5220    -0.6440 f          1 W10      -0.084000
     28 FBN         -2.7570    -0.5570     1.2870 f          1 W10      -0.084000
     29 CAP         -3.9530     0.5590    -0.4700 c          1 W10       0.576100
     30 OAQ         -4.3320     0.6460    -1.6330 o          1 W10      -0.587100
     31 N           -4.6070     1.2150     0.5590 ns         1 W10      -0.428900
     32 CA          -5.8720     1.9810     0.4260 c3         1 W10      -0.042300
     33 C           -5.8320     3.2500     1.3250 c          1 W10       0.717000
     34 OXT         -6.1320     4.3230     0.8210 o          1 W10      -0.713000
     35 O           -5.4050     3.1390     2.4670 o          1 W10      -0.713000
     36 CB          -7.1180     1.1160     0.7470 c3         1 W10      -0.012200
     37 CG          -7.2260    -0.1390    -0.0830 cc         1 W10      -0.112400
     38 CD2         -6.6190    -1.4130     0.1930 ca         1 W10      -0.091800
     39 CE3         -5.8340    -1.8300     1.2790 ca         1 W10      -0.055000
     40 CZ3         -5.3510    -3.1560     1.2750 ca         1 W10      -0.156000
     41 CH2         -5.6640    -4.0260     0.2050 ca         1 W10      -0.100000
     42 CZ2         -6.4660    -3.5770    -0.8660 ca         1 W10      -0.138000
     43 CE2         -6.9290    -2.2550    -0.8370 ca         1 W10      -0.045200
     44 NE1         -7.7200    -1.6150    -1.7720 na         1 W10      -0.228700
     45 CD1         -7.9000    -0.2940    -1.2910 cd         1 W10      -0.163100
     46 H1          -4.2090     1.1190     1.4870 hn         1 W10       0.355500
     47 H2          -5.9560     2.3300    -0.6110 h1         1 W10       0.065700
     48 H4          -7.1050     0.8480     1.8100 hc         1 W10       0.056700
     49 H5          -8.0170     1.7270     0.6000 hc         1 W10       0.056700
     50 H6          -5.6000    -1.1540     2.0970 ha         1 W10       0.122000
     51 H7          -4.7350    -3.5090     2.0980 ha         1 W10       0.102000
     52 H8          -5.2880    -5.0470     0.2090 ha         1 W10       0.095000
     53 H9          -6.7150    -4.2400    -1.6910 ha         1 W10       0.099000
     54 H10         -8.0900    -2.0090    -2.6310 hn         1 W10       0.337000
     55 H11         -8.4780     0.4400    -1.8460 h4         1 W10       0.208000
@<TRIPOS>BOND
     1     1     2 1   
     2     2     3 1   
     3     2     4 1   
     4     2     5 1   
     5     5     6 1   
     6     5     7 1   
     7     5     8 1   
     8     8     9 1   
     9     8    10 1   
    10     8    11 1   
    11    11    12 1   
    12    11    13 1   
    13    11    14 1   
    14    14    15 1   
    15    14    16 1   
    16    14    17 1   
    17    17    18 1   
    18    17    19 1   
    19    17    20 1   
    20    20    21 1   
    21    20    22 1   
    22    20    23 1   
    23    23    24 1   
    24    23    25 1   
    25    23    26 1   
    26    26    27 1   
    27    26    28 1   
    28    26    29 1   
    29    29    30 2   
    30    29    31 1   
    31    31    32 1   
    32    31    46 1   
    33    32    33 1   
    34    32    36 1   
    35    32    47 1   
    36    33    34 1   
    37    33    35 1   
    38    36    37 1   
    39    36    48 1   
    40    36    49 1   
    41    37    38 1   
    42    37    45 2   
    43    38    39 ar  
    44    38    43 ar  
    45    39    40 ar  
    46    39    50 1   
    47    40    41 ar  
    48    40    51 1   
    49    41    42 ar  
    50    41    52 1   
    51    42    43 ar  
    52    42    53 1   
    53    43    44 1   
    54    44    45 1   
    55    44    54 1   
    56    45    55 1   
@<TRIPOS>SUBSTRUCTURE
     1 W10         1 TEMP              0 ****  ****    0 ROOT
