@<TRIPOS>MOLECULE
W11
   45    47     1     0     0
SMALL
No Charge or Current Charge


@<TRIPOS>ATOM
      1 O1          -1.4320    -0.1430     7.0680 os         1 W11      -0.076700
      2 N2          -1.2010    -0.4540     8.4610 nc         1 W11      -0.362300
      3 C3          -0.0220     0.0800     8.7240 cd         1 W11       0.279300
      4 CM3          0.5840    -0.0270    10.0930 c3         1 W11      -0.133400
      5 C4           0.5390     0.7190     7.6070 cd         1 W11      -0.247000
      6 C5          -0.3530     0.5640     6.5950 cc         1 W11       0.183300
      7 C1C         -0.3260     1.0230     5.1640 c3         1 W11      -0.115700
      8 C2C         -0.0330    -0.1250     4.1720 c3         1 W11      -0.079400
      9 C3C          0.0040     0.3410     2.7050 c3         1 W11       0.166600
     10 O1B          0.2830    -0.8070     1.8910 os         1 W11      -0.368100
     11 C1B          0.3690    -0.6500     0.5280 ca         1 W11       0.125100
     12 C2B          1.6120    -0.3530    -0.0670 ca         1 W11      -0.095800
     13 CM2          2.8730    -0.2090     0.7810 c3         1 W11      -0.041800
     14 C3B          1.6900    -0.1850    -1.4620 ca         1 W11      -0.061000
     15 C4B          0.5420    -0.3170    -2.2790 ca         1 W11      -0.155500
     16 C5B         -0.6930    -0.6270    -1.6620 ca         1 W11      -0.061000
     17 C6B         -0.7860    -0.7980    -0.2680 ca         1 W11      -0.095800
     18 CM6         -2.1350    -1.1380     0.3610 c3         1 W11      -0.041800
     19 C2A          0.6390    -0.1370    -3.7410 cc         1 W11       0.623500
     20 N1A          1.7700     0.1530    -4.3640 nd         1 W11      -0.355300
     21 N3A         -0.4680    -0.2640    -4.5290 nc         1 W11      -0.659000
     22 C3A          0.0330    -0.0390    -5.7300 cd         1 W11       0.360300
     23 CM4         -0.7400    -0.0200    -7.0400 c3         1 W11       0.316700
     24 O1A          1.3700     0.2250    -5.7170 os         1 W11      -0.048700
     25 F1           0.0440    -0.3350    -8.0980 f          1 W11      -0.084333
     26 F2          -1.7690    -0.9010    -7.0420 f          1 W11      -0.084333
     27 F3          -1.2660     1.2010    -7.2910 f          1 W11      -0.084333
     28 HM31        -0.0620     0.4410    10.8450 hc         1 W11       0.056367
     29 HM32         0.7300    -1.0760    10.3760 hc         1 W11       0.056367
     30 HM33         1.5600     0.4700    10.1320 hc         1 W11       0.056367
     31 H41          1.4920     1.2320     7.5590 ha         1 W11       0.151000
     32 H1C1        -1.2890     1.4830     4.9140 hc         1 W11       0.063200
     33 H1C2         0.4340     1.8050     5.0480 hc         1 W11       0.063200
     34 H2C1         0.9300    -0.5840     4.4250 hc         1 W11       0.067200
     35 H2C2        -0.8000    -0.9020     4.2790 hc         1 W11       0.067200
     36 H3C1        -0.9630     0.7840     2.4320 h1         1 W11       0.030700
     37 H3C2         0.7820     1.1050     2.5780 h1         1 W11       0.030700
     38 HM21         2.9440    -1.0070     1.5290 hc         1 W11       0.047533
     39 HM22         3.7820    -0.2560     0.1700 hc         1 W11       0.047533
     40 HM23         2.8810     0.7500     1.3120 hc         1 W11       0.047533
     41 H3B          2.6540     0.0500    -1.9100 ha         1 W11       0.135000
     42 H5B         -1.5920    -0.7380    -2.2650 ha         1 W11       0.135000
     43 HM61        -2.0360    -1.9350     1.1080 hc         1 W11       0.047533
     44 HM62        -2.5670    -0.2620     0.8590 hc         1 W11       0.047533
     45 HM63        -2.8570    -1.4830    -0.3870 hc         1 W11       0.047533
@<TRIPOS>BOND
     1     1     2 1   
     2     1     6 1   
     3     2     3 2   
     4     3     4 1   
     5     3     5 1   
     6     4    28 1   
     7     4    29 1   
     8     4    30 1   
     9     5     6 2   
    10     5    31 1   
    11     6     7 1   
    12     7     8 1   
    13     7    32 1   
    14     7    33 1   
    15     8     9 1   
    16     8    34 1   
    17     8    35 1   
    18     9    10 1   
    19     9    36 1   
    20     9    37 1   
    21    10    11 1   
    22    11    12 ar  
    23    11    17 ar  
    24    12    13 1   
    25    12    14 ar  
    26    13    38 1   
    27    13    39 1   
    28    13    40 1   
    29    14    15 ar  
    30    14    41 1   
    31    15    16 ar  
    32    15    19 1   
    33    16    17 ar  
    34    16    42 1   
    35    17    18 1   
    36    18    43 1   
    37    18    44 1   
    38    18    45 1   
    39    19    20 2   
    40    19    21 1   
    41    20    24 1   
    42    21    22 2   
    43    22    23 1   
    44    22    24 1   
    45    23    25 1   
    46    23    26 1   
    47    23    27 1   
@<TRIPOS>SUBSTRUCTURE
     1 W11         1 TEMP              0 ****  ****    0 ROOT
