@<TRIPOS>MOLECULE
W11
   45    47     1     0     0
SMALL
abcg2


@<TRIPOS>ATOM
      1 O1          -1.1210    -0.3240     6.9640 os         1 W11      -0.076700
      2 N2          -0.8890    -0.5090     8.2990 nc         1 W11      -0.362300
      3 C3           0.1120     0.2640     8.6070 cd         1 W11       0.279300
      4 CM3          0.6430     0.3270     9.9940 c3         1 W11      -0.133400
      5 C4           0.5660     0.9800     7.4670 cd         1 W11      -0.247000
      6 C5          -0.2520     0.5650     6.4720 cc         1 W11       0.183300
      7 C1C         -0.3310     0.8910     5.0270 c3         1 W11      -0.115700
      8 C2C         -0.0560    -0.3160     4.1260 c3         1 W11      -0.079400
      9 C3C         -0.0710     0.1020     2.6720 c3         1 W11       0.166600
     10 O1B          0.1810    -1.0490     1.8680 os         1 W11      -0.368100
     11 C1B          0.2850    -0.8000     0.5330 ca         1 W11       0.125100
     12 C2B          1.5390    -0.4840    -0.0010 ca         1 W11      -0.095800
     13 CM2          2.7560    -0.4270     0.8760 c3         1 W11      -0.041800
     14 C3B          1.6320    -0.2500    -1.3640 ca         1 W11      -0.061000
     15 C4B          0.5070    -0.3270    -2.1820 ca         1 W11      -0.155500
     16 C5B         -0.7240    -0.6610    -1.6280 ca         1 W11      -0.061000
     17 C6B         -0.8540    -0.9030    -0.2670 ca         1 W11      -0.095800
     18 CM6         -2.1750    -1.3040     0.3190 c3         1 W11      -0.041800
     19 C2A          0.6100    -0.0700    -3.6130 cc         1 W11       0.623500
     20 N1A          1.7250     0.2390    -4.2130 nd         1 W11      -0.355300
     21 N3A         -0.4600    -0.1230    -4.4670 nc         1 W11      -0.659000
     22 C3A          0.0810     0.1690    -5.5890 cd         1 W11       0.360300
     23 CM4         -0.6210     0.2720    -6.9140 c3         1 W11       0.316700
     24 O1A          1.3740     0.3970    -5.5220 os         1 W11      -0.048700
     25 F1           0.2400     0.5380    -7.8860 f          1 W11      -0.084333
     26 F2          -1.2420    -0.8690    -7.1910 f          1 W11      -0.084333
     27 F3          -1.5320     1.2380    -6.8750 f          1 W11      -0.084333
     28 HM31         0.5520     1.3370    10.3930 hc         1 W11       0.056367
     29 HM32         0.1100    -0.3550    10.6530 hc         1 W11       0.056367
     30 HM33         1.7020     0.0660    10.0110 hc         1 W11       0.056367
     31 H41          1.3730     1.6900     7.4100 ha         1 W11       0.151000
     32 H1C1        -1.3180     1.3040     4.8000 hc         1 W11       0.063200
     33 H1C2         0.3940     1.6800     4.8250 hc         1 W11       0.063200
     34 H2C1         0.9180    -0.7440     4.3730 hc         1 W11       0.067200
     35 H2C2        -0.8080    -1.0900     4.2930 hc         1 W11       0.067200
     36 H3C1        -1.0410     0.5410     2.4110 h1         1 W11       0.030700
     37 H3C2         0.6910     0.8680     2.4920 h1         1 W11       0.030700
     38 HM21         2.8650    -1.3390     1.4640 hc         1 W11       0.047533
     39 HM22         3.6570    -0.3020     0.2780 hc         1 W11       0.047533
     40 HM23         2.7110     0.4050     1.5800 hc         1 W11       0.047533
     41 H3B          2.5970    -0.0000    -1.7880 ha         1 W11       0.135000
     42 H5B         -1.5980    -0.7360    -2.2630 ha         1 W11       0.135000
     43 HM61        -2.1200    -2.2880     0.7860 hc         1 W11       0.047533
     44 HM62        -2.5170    -0.6070     1.0850 hc         1 W11       0.047533
     45 HM63        -2.9410    -1.3430    -0.4530 hc         1 W11       0.047533
@<TRIPOS>BOND
     1     1     2 1   
     2     1     6 1   
     3     2     3 2   
     4     3     4 1   
     5     3     5 1   
     6     4    28 1   
     7     4    29 1   
     8     4    30 1   
     9     5     6 2   
    10     5    31 1   
    11     6     7 1   
    12     7     8 1   
    13     7    32 1   
    14     7    33 1   
    15     8     9 1   
    16     8    34 1   
    17     8    35 1   
    18     9    10 1   
    19     9    36 1   
    20     9    37 1   
    21    10    11 1   
    22    11    12 ar  
    23    11    17 ar  
    24    12    13 1   
    25    12    14 ar  
    26    13    38 1   
    27    13    39 1   
    28    13    40 1   
    29    14    15 ar  
    30    14    41 1   
    31    15    16 ar  
    32    15    19 1   
    33    16    17 ar  
    34    16    42 1   
    35    17    18 1   
    36    18    43 1   
    37    18    44 1   
    38    18    45 1   
    39    19    20 2   
    40    19    21 1   
    41    20    24 1   
    42    21    22 2   
    43    22    23 1   
    44    22    24 1   
    45    23    25 1   
    46    23    26 1   
    47    23    27 1   
@<TRIPOS>SUBSTRUCTURE
     1 W11         1 TEMP              0 ****  ****    0 ROOT
