@<TRIPOS>MOLECULE
W12
   75    76     1     0     0
SMALL
abcg2


@<TRIPOS>ATOM
      1 C4           3.6360    -0.5760     0.3560 ca         1 W12       0.137100
      2 C5           2.6760    -0.3050     1.3360 ca         1 W12      -0.172500
      3 C6           1.7310     0.6770     1.1270 ca         1 W12      -0.071000
      4 C7           1.6940     1.4370    -0.0480 ca         1 W12      -0.104300
      5 C8           2.6520     1.1490    -1.0080 ca         1 W12      -0.071000
      6 C10          0.6320     2.5290    -0.1900 c3         1 W12       0.069600
      7 C13         -0.7340     1.8760     0.0280 ca         1 W12      -0.107300
      8 C15         -2.9010     1.6940     1.1090 ca         1 W12      -0.173000
      9 C11          0.9200     3.6120     0.8700 c3         1 W12      -0.066400
     10 C20         -6.1170    -1.6350     0.3940 c3         1 W12       0.174300
     11 C21         -6.7030    -2.8270    -0.3990 c3         1 W12      -0.076000
     12 C22         -7.0260    -2.3890    -1.8310 c3         1 W12      -0.085767
     13 C24         -5.7340    -4.0130    -0.4380 c3         1 W12      -0.085767
     14 C26         -0.3650     4.2640    -1.8360 c3         1 W12      -0.076400
     15 C28         -0.3360     4.7500    -3.2790 c3         1 W12      -0.090100
     16 C1           7.5370    -3.2450    -0.7030 c3         1 W12       0.129600
     17 C2           6.3710    -2.9890     0.2400 c3         1 W12       0.166300
     18 O02          5.6180    -4.1480     0.5010 oh         1 W12      -0.622000
     19 C3           5.5160    -1.8610    -0.3130 c3         1 W12       0.127600
     20 O03          4.5220    -1.5520     0.6410 os         1 W12      -0.329100
     21 C9           3.6150     0.1570    -0.8220 ca         1 W12      -0.172500
     22 C25          2.2520     4.3350     0.7060 c3         1 W12      -0.076400
     23 C27          2.5270     5.2810     1.8670 c3         1 W12      -0.090100
     24 C12          0.6480     3.1500    -1.6020 c3         1 W12      -0.066400
     25 C18         -1.0920     0.7780    -0.7500 ca         1 W12      -0.070000
     26 C17         -2.3170     0.1410    -0.6200 ca         1 W12      -0.173000
     27 C14         -1.6710     2.3180     0.9590 ca         1 W12      -0.070000
     28 C16         -3.2380     0.5970     0.3230 ca         1 W12       0.141100
     29 O04         -4.4500     0.0460     0.5370 os         1 W12      -0.335100
     30 C19         -4.7870    -1.1400    -0.1580 c3         1 W12       0.129600
     31 O05         -6.0020    -1.8970     1.7750 oh         1 W12      -0.641000
     32 C23         -8.0090    -3.2700     0.2660 c3         1 W12      -0.085767
     33 H1           2.6770    -0.8760     2.2560 ha         1 W12       0.120500
     34 H2           0.9920     0.8520     1.9000 ha         1 W12       0.115000
     35 H3           2.6800     1.6960    -1.9410 ha         1 W12       0.115000
     36 H4          -3.6050     2.0620     1.8450 ha         1 W12       0.120500
     37 H5           0.1190     4.3560     0.8710 hc         1 W12       0.040700
     38 H6           0.8950     3.1510     1.8630 hc         1 W12       0.040700
     39 H7          -6.8410    -0.8140     0.3170 h1         1 W12       0.085700
     40 H8          -6.1370    -2.1330    -2.4080 hc         1 W12       0.036922
     41 H9          -7.5300    -3.1970    -2.3650 hc         1 W12       0.036922
     42 H10         -7.6910    -1.5230    -1.8400 hc         1 W12       0.036922
     43 H11         -5.4680    -4.3670     0.5620 hc         1 W12       0.036922
     44 H12         -6.1920    -4.8560    -0.9580 hc         1 W12       0.036922
     45 H13         -4.8080    -3.7750    -0.9630 hc         1 W12       0.036922
     46 H14         -0.1610     5.1060    -1.1710 hc         1 W12       0.042700
     47 H15         -1.3710     3.9160    -1.5880 hc         1 W12       0.042700
     48 H16          0.6560     5.1180    -3.5520 hc         1 W12       0.030700
     49 H17         -0.5890     3.9450    -3.9720 hc         1 W12       0.030700
     50 H18         -1.0450     5.5610    -3.4430 hc         1 W12       0.030700
     51 H19          9.0910    -4.3930    -0.7520 ho         1 W12       0.444000
     52 H21          7.1490    -3.5630    -1.6810 h1         1 W12       0.019200
     53 H22          6.7750    -2.6720     1.2080 h1         1 W12       0.100700
     54 H23          5.2950    -4.5010    -0.3350 ho         1 W12       0.435000
     55 H24          6.1450    -0.9850    -0.5120 h1         1 W12       0.034700
     56 H25          5.0600    -2.1620    -1.2650 h1         1 W12       0.034700
     57 H26          4.3350    -0.0180    -1.6100 ha         1 W12       0.120500
     58 H27          3.0640     3.6080     0.6270 hc         1 W12       0.042700
     59 H28          2.2590     4.9050    -0.2280 hc         1 W12       0.042700
     60 H29          3.4790     5.7990     1.7430 hc         1 W12       0.030700
     61 H30          1.7480     6.0410     1.9540 hc         1 W12       0.030700
     62 H31          2.5650     4.7410     2.8150 hc         1 W12       0.030700
     63 H32          1.6460     3.5440    -1.8180 hc         1 W12       0.040700
     64 H33          0.4750     2.3590    -2.3390 hc         1 W12       0.040700
     65 H34         -0.3940     0.3870    -1.4810 ha         1 W12       0.113500
     66 H35         -2.5300    -0.7070    -1.2570 ha         1 W12       0.120500
     67 H36         -1.4600     3.1650     1.5990 ha         1 W12       0.113500
     68 H37         -4.0080    -1.8990    -0.0110 h1         1 W12       0.037700
     69 H38         -4.8540    -0.9450    -1.2320 h1         1 W12       0.037700
     70 H39         -5.3630    -2.6060     1.9070 ho         1 W12       0.438000
     71 H40         -8.7340    -2.4530     0.3010 hc         1 W12       0.036922
     72 H41         -8.4590    -4.0860    -0.3040 hc         1 W12       0.036922
     73 H42         -7.8550    -3.6240     1.2850 hc         1 W12       0.036922
     74 H20          8.0690    -2.2990    -0.8660 h1         1 W12       0.019200
     75 O01          8.3740    -4.2220    -0.1350 oh         1 W12      -0.640000
@<TRIPOS>BOND
     1     1     2 ar  
     2     1    20 1   
     3     1    21 ar  
     4     2     3 ar  
     5     2    33 1   
     6     3     4 ar  
     7     3    34 1   
     8     4     5 ar  
     9     4     6 1   
    10     5    21 ar  
    11     5    35 1   
    12     6     7 1   
    13     6     9 1   
    14     6    24 1   
    15     7    25 ar  
    16     7    27 ar  
    17     8    27 ar  
    18     8    28 ar  
    19     8    36 1   
    20     9    22 1   
    21     9    37 1   
    22     9    38 1   
    23    10    11 1   
    24    10    30 1   
    25    10    31 1   
    26    10    39 1   
    27    11    12 1   
    28    11    13 1   
    29    11    32 1   
    30    12    40 1   
    31    12    41 1   
    32    12    42 1   
    33    13    43 1   
    34    13    44 1   
    35    13    45 1   
    36    14    15 1   
    37    14    24 1   
    38    14    46 1   
    39    14    47 1   
    40    15    48 1   
    41    15    49 1   
    42    15    50 1   
    43    16    17 1   
    44    16    52 1   
    45    16    74 1   
    46    16    75 1   
    47    17    18 1   
    48    17    19 1   
    49    17    53 1   
    50    18    54 1   
    51    19    20 1   
    52    19    55 1   
    53    19    56 1   
    54    21    57 1   
    55    22    23 1   
    56    22    58 1   
    57    22    59 1   
    58    23    60 1   
    59    23    61 1   
    60    23    62 1   
    61    24    63 1   
    62    24    64 1   
    63    25    26 ar  
    64    25    65 1   
    65    26    28 ar  
    66    26    66 1   
    67    27    67 1   
    68    28    29 1   
    69    29    30 1   
    70    30    68 1   
    71    30    69 1   
    72    31    70 1   
    73    32    71 1   
    74    32    72 1   
    75    32    73 1   
    76    51    75 1   
@<TRIPOS>SUBSTRUCTURE
     1 W12         1 TEMP              0 ****  ****    0 ROOT
