@<TRIPOS>MOLECULE
W12
   75    76     1     0     0
SMALL
No Charge or Current Charge


@<TRIPOS>ATOM
      1 C4           3.6800    -0.5680     0.2800 ca         1 W12       0.137100
      2 C5           2.7100    -0.3490     1.2660 ca         1 W12      -0.172500
      3 C6           1.7480     0.6630     1.1090 ca         1 W12      -0.071000
      4 C7           1.7320     1.4820    -0.0440 ca         1 W12      -0.104300
      5 C8           2.7190     1.2520    -1.0360 ca         1 W12      -0.071000
      6 C10          0.6470     2.5890    -0.1600 c3         1 W12       0.069600
      7 C13         -0.7280     1.8950     0.0570 ca         1 W12      -0.107300
      8 C15         -2.9080     1.6680     1.1570 ca         1 W12      -0.173000
      9 C11          0.9590     3.6650     0.9420 c3         1 W12      -0.066400
     10 C20         -6.2810    -1.6110     0.2550 c3         1 W12       0.174300
     11 C21         -6.8610    -2.9170    -0.4100 c3         1 W12      -0.076000
     12 C22         -6.9180    -2.7500    -1.9550 c3         1 W12      -0.085767
     13 C24         -6.0030    -4.1720    -0.0760 c3         1 W12      -0.085767
     14 C26         -0.5050     4.3050    -1.8240 c3         1 W12      -0.076400
     15 C28         -0.5090     4.8530    -3.2640 c3         1 W12      -0.090100
     16 C1           7.7430    -3.3110    -0.8060 c3         1 W12       0.129600
     17 C2           6.4970    -3.0470     0.0790 c3         1 W12       0.166300
     18 O02          5.7220    -4.2610     0.1530 oh         1 W12      -0.622000
     19 C3           5.6380    -1.8760    -0.4650 c3         1 W12       0.127600
     20 O03          4.6000    -1.5740     0.4890 os         1 W12      -0.329100
     21 C9           3.6820     0.2390    -0.8750 ca         1 W12      -0.172500
     22 C25          2.3530     4.3440     0.8610 c3         1 W12      -0.076400
     23 C27          2.6050     5.3280     2.0200 c3         1 W12      -0.090100
     24 C12          0.6130     3.2550    -1.5850 c3         1 W12      -0.066400
     25 C18         -1.0570     0.7740    -0.7400 ca         1 W12      -0.070000
     26 C17         -2.2860     0.1090    -0.5920 ca         1 W12      -0.173000
     27 C14         -1.6790     2.3340     1.0110 ca         1 W12      -0.070000
     28 C16         -3.2200     0.5580     0.3620 ca         1 W12       0.141100
     29 O04         -4.4420    -0.0520     0.5530 os         1 W12      -0.335100
     30 C19         -4.8570    -1.1980    -0.2190 c3         1 W12       0.129600
     31 O05         -6.2710    -1.7330     1.6900 oh         1 W12      -0.641000
     32 C23         -8.3130    -3.1590     0.0950 c3         1 W12      -0.085767
     33 H1           2.7020    -0.9670     2.1600 ha         1 W12       0.120500
     34 H2           1.0060     0.8060     1.8910 ha         1 W12       0.115000
     35 H3           2.7650     1.8500    -1.9410 ha         1 W12       0.115000
     36 H4          -3.6260     2.0180     1.8940 ha         1 W12       0.120500
     37 H5           0.2000     4.4540     0.9220 hc         1 W12       0.040700
     38 H6           0.8760     3.1960     1.9300 hc         1 W12       0.040700
     39 H7          -6.9470    -0.7830    -0.0260 h1         1 W12       0.085700
     40 H8          -5.9140    -2.6710    -2.3890 hc         1 W12       0.036922
     41 H9          -7.4090    -3.6110    -2.4240 hc         1 W12       0.036922
     42 H10         -7.4820    -1.8500    -2.2330 hc         1 W12       0.036922
     43 H11         -5.9310    -4.3300     1.0070 hc         1 W12       0.036922
     44 H12         -6.4480    -5.0740    -0.5140 hc         1 W12       0.036922
     45 H13         -4.9860    -4.0820    -0.4750 hc         1 W12       0.036922
     46 H14         -0.3800     5.1490    -1.1370 hc         1 W12       0.042700
     47 H15         -1.4860     3.8620    -1.6170 hc         1 W12       0.042700
     48 H16          0.4460     5.3390    -3.4970 hc         1 W12       0.030700
     49 H17         -0.6730     4.0450    -3.9870 hc         1 W12       0.030700
     50 H18         -1.3090     5.5930    -3.3890 hc         1 W12       0.030700
     51 H19          9.2830    -4.5340    -0.8660 ho         1 W12       0.444000
     52 H21          7.4230    -3.4950    -1.8410 h1         1 W12       0.019200
     53 H22          6.8560    -2.7630     1.0790 h1         1 W12       0.100700
     54 H23          6.3910    -4.9820     0.1670 ho         1 W12       0.435000
     55 H24          6.2820    -0.9990    -0.6130 h1         1 W12       0.034700
     56 H25          5.2080    -2.1570    -1.4350 h1         1 W12       0.034700
     57 H26          4.4200     0.0980    -1.6590 ha         1 W12       0.120500
     58 H27          3.1420     3.5840     0.8710 hc         1 W12       0.042700
     59 H28          2.4480     4.8950    -0.0820 hc         1 W12       0.042700
     60 H29          3.5950     5.7870     1.9230 hc         1 W12       0.030700
     61 H30          1.8540     6.1270     2.0210 hc         1 W12       0.030700
     62 H31          2.5610     4.8090     2.9850 hc         1 W12       0.030700
     63 H32          1.5740     3.7350    -1.7980 hc         1 W12       0.040700
     64 H33          0.4970     2.4690    -2.3410 hc         1 W12       0.040700
     65 H34         -0.3500     0.4070    -1.4810 ha         1 W12       0.113500
     66 H35         -2.4920    -0.7480    -1.2260 ha         1 W12       0.120500
     67 H36         -1.4920     3.1910     1.6510 ha         1 W12       0.113500
     68 H37         -4.1560    -2.0290    -0.0710 h1         1 W12       0.037700
     69 H38         -4.8820    -0.9460    -1.2860 h1         1 W12       0.037700
     70 H39         -5.6670    -1.0270     2.0080 ho         1 W12       0.438000
     71 H40         -8.9500    -2.2900    -0.1090 hc         1 W12       0.036922
     72 H41         -8.7620    -4.0290    -0.4010 hc         1 W12       0.036922
     73 H42         -8.3360    -3.3490     1.1750 hc         1 W12       0.036922
     74 H20          8.3770    -2.4140    -0.8080 h1         1 W12       0.019200
     75 O01          8.4800    -4.4390    -0.3040 oh         1 W12      -0.640000
@<TRIPOS>BOND
     1     1     2 ar  
     2     1    20 1   
     3     1    21 ar  
     4     2     3 ar  
     5     2    33 1   
     6     3     4 ar  
     7     3    34 1   
     8     4     5 ar  
     9     4     6 1   
    10     5    21 ar  
    11     5    35 1   
    12     6     7 1   
    13     6     9 1   
    14     6    24 1   
    15     7    25 ar  
    16     7    27 ar  
    17     8    27 ar  
    18     8    28 ar  
    19     8    36 1   
    20     9    22 1   
    21     9    37 1   
    22     9    38 1   
    23    10    11 1   
    24    10    30 1   
    25    10    31 1   
    26    10    39 1   
    27    11    12 1   
    28    11    13 1   
    29    11    32 1   
    30    12    40 1   
    31    12    41 1   
    32    12    42 1   
    33    13    43 1   
    34    13    44 1   
    35    13    45 1   
    36    14    15 1   
    37    14    24 1   
    38    14    46 1   
    39    14    47 1   
    40    15    48 1   
    41    15    49 1   
    42    15    50 1   
    43    16    17 1   
    44    16    52 1   
    45    16    74 1   
    46    16    75 1   
    47    17    18 1   
    48    17    19 1   
    49    17    53 1   
    50    18    54 1   
    51    19    20 1   
    52    19    55 1   
    53    19    56 1   
    54    21    57 1   
    55    22    23 1   
    56    22    58 1   
    57    22    59 1   
    58    23    60 1   
    59    23    61 1   
    60    23    62 1   
    61    24    63 1   
    62    24    64 1   
    63    25    26 ar  
    64    25    65 1   
    65    26    28 ar  
    66    26    66 1   
    67    27    67 1   
    68    28    29 1   
    69    29    30 1   
    70    30    68 1   
    71    30    69 1   
    72    31    70 1   
    73    32    71 1   
    74    32    72 1   
    75    32    73 1   
    76    51    75 1   
@<TRIPOS>SUBSTRUCTURE
     1 W12         1 TEMP              0 ****  ****    0 ROOT
