@<TRIPOS>MOLECULE
W13
   53    56     1     0     0
SMALL
No Charge or Current Charge


@<TRIPOS>ATOM
      1 C4           4.3610     1.8450     0.7180 ca         1 W13      -0.180000
      2 C5           3.8980     0.5340     0.8830 ca         1 W13       0.349000
      3 C11          7.1150    -1.1300    -1.9130 c6         1 W13       0.156600
      4 C7           6.0790    -0.6510     0.3520 c6         1 W13       0.226500
      5 C8           6.8470    -1.8740     0.8990 c6         1 W13      -0.134400
      6 C9           8.1160    -2.1290     0.0530 c6         1 W13       0.156600
      7 C12          5.8000    -0.8240    -1.1610 c6         1 W13      -0.134400
      8 C13          2.5060     0.2680     0.8540 ca         1 W13       0.041000
      9 C3           3.4540     2.8880     0.5100 ca         1 W13      -0.052000
     10 C2           2.0730     2.6420     0.4690 ca         1 W13       0.072000
     11 N6           4.8160    -0.5080     1.0880 nu         1 W13      -0.946200
     12 O10          7.7510    -2.2900    -1.3350 os         1 W13      -0.445000
     13 Cl14         1.9960    -1.4250     1.0750 cl         1 W13      -0.209000
     14 C15          1.5620     1.3200     0.6460 ca         1 W13      -0.005300
     15 C16          0.0320     1.0130     0.6120 c6         1 W13      -0.008400
     16 C17         -0.7870     1.7050     1.7340 c6         1 W13      -0.175400
     17 C18         -2.2420     1.2250     1.7430 c          1 W13       0.601300
     18 C19         -2.8650     0.9920     0.3980 ce         1 W13      -0.306600
     19 S20         -4.6310     0.6830     0.4380 ss         1 W13      -0.032600
     20 C21         -4.7540    -1.0310    -0.0720 ca         1 W13      -0.098000
     21 C22         -5.7450    -1.4430    -0.9880 ca         1 W13       0.125000
     22 Cl23        -6.8840    -0.2830    -1.6720 cl         1 W13      -0.190000
     23 C24         -5.8270    -2.7900    -1.3800 ca         1 W13      -0.092000
     24 C25         -4.9250    -3.7330    -0.8580 ca         1 W13      -0.108000
     25 C26         -3.9390    -3.3280     0.0570 ca         1 W13      -0.098000
     26 C27         -3.8540    -1.9810     0.4500 ca         1 W13      -0.099000
     27 C28         -2.1310     1.0050    -0.7330 c2         1 W13       0.238900
     28 O29         -2.6660     0.7990    -1.9430 oh         1 W13      -0.512100
     29 C30         -0.6290     1.2510    -0.7730 c6         1 W13      -0.051200
     30 O31         -2.8390     1.0480     2.7960 o          1 W13      -0.513100
     31 H1           5.4240     2.0630     0.7560 ha         1 W13       0.124000
     32 H3           7.8000    -0.2720    -1.8550 h1         1 W13       0.048450
     33 H4           6.7120     0.2390     0.4950 h1         1 W13       0.062700
     34 H5           7.1270    -1.7080     1.9480 hc         1 W13       0.058950
     35 H6           6.2120    -2.7700     0.8750 hc         1 W13       0.058950
     36 H7           8.8190    -1.2880     0.1510 h1         1 W13       0.048450
     37 H8           8.6220    -3.0410     0.3990 h1         1 W13       0.048450
     38 H9           5.3440     0.0860    -1.5730 hc         1 W13       0.058950
     39 H10          5.0870    -1.6420    -1.3260 hc         1 W13       0.058950
     40 H11          3.8240     3.9030     0.3790 ha         1 W13       0.132000
     41 H12          4.3580    -1.3830     1.3490 hn         1 W13       0.488000
     42 H13         -0.1200    -0.0540     0.8010 hc         1 W13       0.071700
     43 H14         -0.3450     1.5830     2.7310 hc         1 W13       0.082200
     44 H15         -0.8470     2.7750     1.5160 hc         1 W13       0.082200
     45 H16         -6.5900    -3.1020    -2.0890 ha         1 W13       0.128000
     46 H17         -4.9900    -4.7760    -1.1620 ha         1 W13       0.118000
     47 H18         -3.2410    -4.0570     0.4630 ha         1 W13       0.116000
     48 H19         -3.0910    -1.6790     1.1640 ha         1 W13       0.120000
     49 H20         -3.6200     0.6380    -1.7930 ho         1 W13       0.502000
     50 H21         -0.4590     2.2700    -1.1330 hc         1 W13       0.085200
     51 H22         -0.1650     0.5860    -1.5150 hc         1 W13       0.085200
     52 Cl1          1.0570     4.0580     0.1880 cl         1 W13      -0.203000
     53 H2           6.9050    -1.3290    -2.9740 h1         1 W13       0.048450
@<TRIPOS>BOND
     1     1     2 ar  
     2     1     9 ar  
     3     1    31 1   
     4     2     8 ar  
     5     2    11 1   
     6     3     7 1   
     7     3    12 1   
     8     3    32 1   
     9     3    53 1   
    10     4     5 1   
    11     4     7 1   
    12     4    11 1   
    13     4    33 1   
    14     5     6 1   
    15     5    34 1   
    16     5    35 1   
    17     6    12 1   
    18     6    36 1   
    19     6    37 1   
    20     7    38 1   
    21     7    39 1   
    22     8    13 1   
    23     8    14 ar  
    24     9    10 ar  
    25     9    40 1   
    26    10    14 ar  
    27    10    52 1   
    28    11    41 1   
    29    14    15 1   
    30    15    16 1   
    31    15    29 1   
    32    15    42 1   
    33    16    17 1   
    34    16    43 1   
    35    16    44 1   
    36    17    18 1   
    37    17    30 2   
    38    18    19 1   
    39    18    27 2   
    40    19    20 1   
    41    20    21 ar  
    42    20    26 ar  
    43    21    22 1   
    44    21    23 ar  
    45    23    24 ar  
    46    23    45 1   
    47    24    25 ar  
    48    24    46 1   
    49    25    26 ar  
    50    25    47 1   
    51    26    48 1   
    52    27    28 1   
    53    27    29 1   
    54    28    49 1   
    55    29    50 1   
    56    29    51 1   
@<TRIPOS>SUBSTRUCTURE
     1 W13         1 TEMP              0 ****  ****    0 ROOT
