@<TRIPOS>MOLECULE
W13
   53    56     1     0     0
SMALL
abcg2


@<TRIPOS>ATOM
      1 C4           4.2430     1.5320     0.5180 ca         1 W13      -0.180000
      2 C5           3.7430     0.2310     0.3970 ca         1 W13       0.349000
      3 C11          7.9800    -0.5120    -1.2040 c6         1 W13       0.156600
      4 C7           5.9950    -0.7990     0.2910 c6         1 W13       0.226500
      5 C8           6.5980    -2.1410     0.6890 c6         1 W13      -0.134400
      6 C9           8.1060    -2.1180     0.4930 c6         1 W13       0.156600
      7 C12          6.4630    -0.4370    -1.1200 c6         1 W13      -0.134400
      8 C13          2.3440     0.1010     0.2890 ca         1 W13       0.041000
      9 C3           3.3950     2.6180     0.5280 ca         1 W13      -0.052000
     10 C2           2.0260     2.4490     0.4130 ca         1 W13       0.072000
     11 N6           4.5550    -0.8640     0.4260 nu         1 W13      -0.946200
     12 O10          8.4660    -1.7820    -0.8280 os         1 W13      -0.445000
     13 CL14         1.7400    -1.5300     0.1590 cl         1 W13      -0.209000
     14 C15          1.4530     1.1800     0.2940 ca         1 W13      -0.005300
     15 C16         -0.0370     0.9430     0.1840 c6         1 W13      -0.008400
     16 C17         -0.8180     1.3830     1.4220 c6         1 W13      -0.175400
     17 C18         -2.2800     1.0270     1.3130 c          1 W13       0.601300
     18 C19         -2.8570     0.9980    -0.0270 ce         1 W13      -0.306600
     19 S20         -4.5930     0.7820    -0.1810 ss         1 W13      -0.032600
     20 C21         -4.7940    -0.9760    -0.0860 ca         1 W13      -0.098000
     21 C22         -6.0910    -1.4830    -0.0750 ca         1 W13       0.125000
     22 CL23        -7.4310    -0.3890    -0.1700 cl         1 W13      -0.190000
     23 C24         -6.3360    -2.8450     0.0040 ca         1 W13      -0.092000
     24 C25         -5.2690    -3.7270     0.0770 ca         1 W13      -0.108000
     25 C26         -3.9710    -3.2380     0.0650 ca         1 W13      -0.098000
     26 C27         -3.7350    -1.8740    -0.0170 ca         1 W13      -0.099000
     27 C28         -2.1120     1.2320    -1.1460 c2         1 W13       0.238900
     28 O29         -2.6130     1.2530    -2.3600 oh         1 W13      -0.512100
     29 C30         -0.6470     1.5050    -1.0980 c6         1 W13      -0.051200
     30 O31         -2.9540     0.8060     2.3020 o          1 W13      -0.513100
     31 H1           5.3060     1.7050     0.6060 ha         1 W13       0.124000
     32 H3           8.4210     0.2710    -0.5680 h1         1 W13       0.048450
     33 H4           6.3770    -0.0490     0.9940 h1         1 W13       0.062700
     34 H5           6.3730    -2.3660     1.7340 hc         1 W13       0.058950
     35 H6           6.1590    -2.9380     0.0800 hc         1 W13       0.058950
     36 H7           8.5540    -1.4090     1.2050 h1         1 W13       0.048450
     37 H8           8.5320    -3.1010     0.7030 h1         1 W13       0.048450
     38 H9           6.1390     0.5680    -1.4000 hc         1 W13       0.058950
     39 H10          6.0140    -1.1320    -1.8360 hc         1 W13       0.058950
     40 H11          3.8100     3.6120     0.6220 ha         1 W13       0.132000
     41 H12          4.1470    -1.7280     0.1050 hn         1 W13       0.488000
     42 H13         -0.1820    -0.1340     0.1170 hc         1 W13       0.071700
     43 H14         -0.4090     0.9160     2.3190 hc         1 W13       0.082200
     44 H15         -0.7670     2.4640     1.5720 hc         1 W13       0.082200
     45 H16         -7.3550    -3.2080     0.0110 ha         1 W13       0.128000
     46 H17         -5.4560    -4.7900     0.1410 ha         1 W13       0.118000
     47 H18         -3.1320    -3.9190     0.1180 ha         1 W13       0.116000
     48 H19         -2.7160    -1.5090    -0.0350 ha         1 W13       0.120000
     49 H20         -3.5770     1.1120    -2.3300 ho         1 W13       0.502000
     50 H21         -0.5080     2.5850    -1.1940 hc         1 W13       0.085200
     51 H22         -0.1750     1.0500    -1.9700 hc         1 W13       0.085200
     52 CL1          1.0670     3.9020     0.4230 cl         1 W13      -0.203000
     53 H2           8.3180    -0.3300    -2.2250 h1         1 W13       0.048450
@<TRIPOS>BOND
     1     1     2 ar  
     2     1     9 ar  
     3     1    31 1   
     4     2     8 ar  
     5     2    11 1   
     6     3     7 1   
     7     3    12 1   
     8     3    32 1   
     9     3    53 1   
    10     4     5 1   
    11     4     7 1   
    12     4    11 1   
    13     4    33 1   
    14     5     6 1   
    15     5    34 1   
    16     5    35 1   
    17     6    12 1   
    18     6    36 1   
    19     6    37 1   
    20     7    38 1   
    21     7    39 1   
    22     8    13 1   
    23     8    14 ar  
    24     9    10 ar  
    25     9    40 1   
    26    10    14 ar  
    27    10    52 1   
    28    11    41 1   
    29    14    15 1   
    30    15    16 1   
    31    15    29 1   
    32    15    42 1   
    33    16    17 1   
    34    16    43 1   
    35    16    44 1   
    36    17    18 1   
    37    17    30 2   
    38    18    19 1   
    39    18    27 2   
    40    19    20 1   
    41    20    21 ar  
    42    20    26 ar  
    43    21    22 1   
    44    21    23 ar  
    45    23    24 ar  
    46    23    45 1   
    47    24    25 ar  
    48    24    46 1   
    49    25    26 ar  
    50    25    47 1   
    51    26    48 1   
    52    27    28 1   
    53    27    29 1   
    54    28    49 1   
    55    29    50 1   
    56    29    51 1   
@<TRIPOS>SUBSTRUCTURE
     1 W13         1 TEMP              0 ****  ****    0 ROOT
