@<TRIPOS>MOLECULE
W14
   27    28     1     0     0
SMALL
No Charge or Current Charge


@<TRIPOS>ATOM
      1 OAA         -2.9310    -1.6040    -0.3370 o          1 W14      -0.545100
      2 FAC         -4.2000     0.7770    -0.5000 f          1 W14      -0.102667
      3 FAD         -2.2740     1.5070    -1.1980 f          1 W14      -0.102667
      4 FAE         -2.7650     1.5560     0.9350 f          1 W14      -0.102667
      5 CAF          4.0680    -0.3840    -0.5970 ca         1 W14      -0.135000
      6 CAG          3.1360    -1.4340    -0.6170 ca         1 W14      -0.069000
      7 CAH          2.3710     1.1090     0.2960 ca         1 W14      -0.197000
      8 CAI          0.8080    -2.3670    -0.2070 c6         1 W14      -0.049100
      9 CAJ         -0.3740    -2.1140     0.7470 c6         1 W14       0.090000
     10 CAK         -0.0100     0.3420     0.7570 c6         1 W14       0.146300
     11 CAL         -2.2750    -0.6110    -0.0330 c          1 W14       0.556100
     12 CAM          3.6860     0.8850    -0.1390 ca         1 W14       0.144100
     13 CAN          1.8160    -1.2170    -0.1770 ca         1 W14      -0.103300
     14 CAO          1.4260     0.0640     0.2790 ca         1 W14      -0.067300
     15 NAP         -0.9630    -0.7750     0.4970 n          1 W14      -0.385800
     16 CAQ         -2.8790     0.8220    -0.1990 c3         1 W14       0.221000
     17 HOAB         4.1540     2.7040     0.2250 ho         1 W14       0.466000
     18 HAF          5.0870    -0.5540    -0.9350 ha         1 W14       0.133000
     19 HAG          3.4390    -2.4160    -0.9750 ha         1 W14       0.117000
     20 HAH          2.0740     2.0950     0.6490 ha         1 W14       0.114000
     21 HAI          1.2980    -3.3130     0.0620 hc         1 W14       0.063200
     22 HAIA         0.4300    -2.4900    -1.2310 hc         1 W14       0.063200
     23 HAJ         -1.1200    -2.9120     0.6320 h1         1 W14       0.069200
     24 HAJA        -0.0160    -2.1560     1.7860 h1         1 W14       0.069200
     25 HAK          0.0110     0.5420     1.8370 h1         1 W14       0.068700
     26 HAKA        -0.3410     1.2660     0.2690 h1         1 W14       0.068700
     27 OAB          4.5950     1.9000    -0.1210 oh         1 W14      -0.531100
@<TRIPOS>BOND
     1     1    11 2   
     2     2    16 1   
     3     3    16 1   
     4     4    16 1   
     5     5     6 ar  
     6     5    12 ar  
     7     5    18 1   
     8     6    13 ar  
     9     6    19 1   
    10     7    12 ar  
    11     7    14 ar  
    12     7    20 1   
    13     8     9 1   
    14     8    13 1   
    15     8    21 1   
    16     8    22 1   
    17     9    15 1   
    18     9    23 1   
    19     9    24 1   
    20    10    14 1   
    21    10    15 1   
    22    10    25 1   
    23    10    26 1   
    24    11    15 1   
    25    11    16 1   
    26    12    27 1   
    27    13    14 ar  
    28    17    27 1   
@<TRIPOS>SUBSTRUCTURE
     1 W14         1 TEMP              0 ****  ****    0 ROOT
