@<TRIPOS>MOLECULE
W14
   27    28     1     0     0
SMALL
bcc


@<TRIPOS>ATOM
      1 OAA         -2.7530    -1.5460    -0.5030 o          1 W14      -0.545100
      2 FAC         -3.7660     0.7550    -0.9490 f          1 W14      -0.223967
      3 FAD         -1.7590     1.4890    -1.1480 f          1 W14      -0.223967
      4 FAE         -2.7370     1.4960     0.7830 f          1 W14      -0.223967
      5 CAF          3.8880    -0.3080    -0.7420 ca         1 W14      -0.153000
      6 CAG          2.9840    -1.3530    -0.7060 ca         1 W14      -0.087000
      7 CAH          2.2620     1.0960     0.3330 ca         1 W14      -0.215000
      8 CAI          0.7470    -2.3640    -0.1310 c6         1 W14      -0.049100
      9 CAJ         -0.4010    -2.1050     0.8300 c6         1 W14       0.090000
     10 CAK          0.0080     0.2630     0.9990 c6         1 W14       0.146300
     11 CAL         -2.0720    -0.6280    -0.0890 c          1 W14       0.623100
     12 CAM          3.5270     0.9310    -0.2150 ca         1 W14       0.144100
     13 CAN          1.7120    -1.2070    -0.1540 ca         1 W14      -0.103300
     14 CAO          1.3600     0.0360     0.3640 ca         1 W14      -0.067300
     15 NAP         -0.9330    -0.7680     0.5970 n          1 W14      -0.452800
     16 CAQ         -2.5860     0.8040    -0.3510 c3         1 W14       0.584900
     17 HOAB         4.0800     2.7290     0.1330 ho         1 W14       0.427000
     18 HAF          4.8720    -0.4470    -1.1730 ha         1 W14       0.151000
     19 HAG          3.2770    -2.3130    -1.1130 ha         1 W14       0.135000
     20 HAH          1.9680     2.0600     0.7380 ha         1 W14       0.132000
     21 HAI          1.2610    -3.2810     0.1670 hc         1 W14       0.063200
     22 HAIA         0.3500    -2.5450    -1.1340 hc         1 W14       0.063200
     23 HAJ         -1.1860    -2.8470     0.7210 h1         1 W14       0.069200
     24 HAJA        -0.0500    -2.1420     1.8640 h1         1 W14       0.069200
     25 HAK          0.1040     0.2250     2.0880 h1         1 W14       0.068700
     26 HAKA        -0.3400     1.2620     0.7620 h1         1 W14       0.068700
     27 OAB          4.4350     1.9270    -0.2670 oh         1 W14      -0.492100
@<TRIPOS>BOND
     1     1    11 2   
     2     2    16 1   
     3     3    16 1   
     4     4    16 1   
     5     5     6 ar  
     6     5    12 ar  
     7     5    18 1   
     8     6    13 ar  
     9     6    19 1   
    10     7    12 ar  
    11     7    14 ar  
    12     7    20 1   
    13     8     9 1   
    14     8    13 1   
    15     8    21 1   
    16     8    22 1   
    17     9    15 1   
    18     9    23 1   
    19     9    24 1   
    20    10    14 1   
    21    10    15 1   
    22    10    25 1   
    23    10    26 1   
    24    11    15 1   
    25    11    16 1   
    26    12    27 1   
    27    13    14 ar  
    28    17    27 1   
@<TRIPOS>SUBSTRUCTURE
     1 W14         1 TEMP              0 ****  ****    0 ROOT
