@<TRIPOS>MOLECULE
W15
   20    20     1     0     0
SMALL
abcg2


@<TRIPOS>ATOM
      1 C2          46.7740   -18.2260     9.5350 ca         1 W15      -0.105300
      2 C1          47.4650   -19.5630     9.5700 c3         1 W15      -0.026100
      3 C3          47.4490   -17.0690     9.1510 ca         1 W15       0.180000
      4 C4          46.8670   -15.8170     9.0680 ca         1 W15      -0.149000
      5 C5          45.5210   -15.6930     9.3880 ca         1 W15      -0.080000
      6 C6          44.7930   -16.8060     9.7880 ca         1 W15      -0.120000
      7 C7          45.4250   -18.0410     9.8550 ca         1 W15       0.142000
      8 N           47.6070   -19.8000     7.1030 n8         1 W15      -0.999200
      9 C           47.1530   -20.4340     8.3470 c3         1 W15       0.153800
     10 F           48.7670   -17.1660     8.8440 f          1 W15      -0.171000
     11 CL          44.4690   -19.4130    10.3860 cl         1 W15      -0.211000
     12 H1          47.1580   -20.1020    10.4670 hc         1 W15       0.067700
     13 H2          48.5420   -19.4090     9.6280 hc         1 W15       0.067700
     14 H3          47.4620   -14.9680     8.7590 ha         1 W15       0.138000
     15 H4          45.0380   -14.7270     9.3310 ha         1 W15       0.123000
     16 H5          43.7480   -16.7210    10.0480 ha         1 W15       0.134000
     17 H6          47.4490   -20.4320     6.3250 hn         1 W15       0.393500
     18 H7          47.0380   -18.9800     6.9100 hn         1 W15       0.393500
     19 H9          46.0830   -20.6690     8.3370 h1         1 W15       0.034700
     20 H10         47.6900   -21.3780     8.4600 h1         1 W15       0.034700
@<TRIPOS>BOND
     1     1     2 1   
     2     1     3 ar  
     3     1     7 ar  
     4     2     9 1   
     5     2    12 1   
     6     2    13 1   
     7     3     4 ar  
     8     3    10 1   
     9     4     5 ar  
    10     4    14 1   
    11     5     6 ar  
    12     5    15 1   
    13     6     7 ar  
    14     6    16 1   
    15     7    11 1   
    16     8     9 1   
    17     8    17 1   
    18     8    18 1   
    19     9    19 1   
    20     9    20 1   
@<TRIPOS>SUBSTRUCTURE
     1 W15         1 TEMP              0 ****  ****    0 ROOT
