@<TRIPOS>MOLECULE
W15
   20    20     1     0     0
SMALL
No Charge or Current Charge


@<TRIPOS>ATOM
      1 C2          46.7810   -18.1920     9.5140 ca         1 W15      -0.105300
      2 C1          47.4810   -19.5590     9.5690 c3         1 W15      -0.026100
      3 C3          47.4960   -17.0310     9.1390 ca         1 W15       0.180000
      4 C4          46.8620   -15.7790     9.0860 ca         1 W15      -0.149000
      5 C5          45.5020   -15.6620     9.4100 ca         1 W15      -0.080000
      6 C6          44.7800   -16.8050     9.7900 ca         1 W15      -0.120000
      7 C7          45.4100   -18.0600     9.8430 ca         1 W15       0.142000
      8 N           47.6350   -19.8910     7.0790 n8         1 W15      -0.999200
      9 C           47.1680   -20.4680     8.3570 c3         1 W15       0.153800
     10 F           48.8090   -17.1020     8.8220 f          1 W15      -0.171000
     11 Cl          44.4420   -19.4500    10.3410 cl         1 W15      -0.211000
     12 H1          47.1910   -20.0910    10.4830 hc         1 W15       0.067700
     13 H2          48.5680   -19.4440     9.6460 hc         1 W15       0.067700
     14 H3          47.4300   -14.8990     8.7940 ha         1 W15       0.138000
     15 H4          45.0100   -14.6920     9.3700 ha         1 W15       0.123000
     16 H5          43.7270   -16.7180    10.0450 ha         1 W15       0.134000
     17 H6          47.3190   -20.4880     6.3050 hn         1 W15       0.393500
     18 H7          47.1440   -19.0040     6.9180 hn         1 W15       0.393500
     19 H9          46.0850   -20.6370     8.2900 h1         1 W15       0.034700
     20 H10         47.6560   -21.4430     8.4980 h1         1 W15       0.034700
@<TRIPOS>BOND
     1     1     2 1   
     2     1     3 ar  
     3     1     7 ar  
     4     2     9 1   
     5     2    12 1   
     6     2    13 1   
     7     3     4 ar  
     8     3    10 1   
     9     4     5 ar  
    10     4    14 1   
    11     5     6 ar  
    12     5    15 1   
    13     6     7 ar  
    14     6    16 1   
    15     7    11 1   
    16     8     9 1   
    17     8    17 1   
    18     8    18 1   
    19     9    19 1   
    20     9    20 1   
@<TRIPOS>SUBSTRUCTURE
     1 W15         1 TEMP              0 ****  ****    0 ROOT
