@<TRIPOS>MOLECULE
W16
   15    15     1     0     0
SMALL
bcc


@<TRIPOS>ATOM
      1 CLA         -3.7120    -0.1790    -0.2420 cl         1 W16      -0.199400
      2 CAC         -1.9510    -0.0640    -0.5790 c3         1 W16       0.050000
      3 CAD         -1.1900     0.2020     0.7110 c3         1 W16      -0.117700
      4 CAI          0.2730     0.3200     0.4540 cc         1 W16       0.395700
      5 SAG          1.2620    -1.0500     0.0290 ss         1 W16      -0.342800
      6 NAF          0.9360     1.4200     0.4900 nd         1 W16      -0.285000
      7 NAE          2.2460     1.2950     0.1920 nd         1 W16      -0.411000
      8 CAH          2.5860     0.0690    -0.0760 cc         1 W16       0.666300
      9 NAA          3.8440    -0.3320    -0.3480 nv         1 W16      -0.922500
     10 HAC1        -1.6550    -1.0030    -1.0420 h1         1 W16       0.070700
     11 HAC2        -1.8110     0.7440    -1.2940 h1         1 W16       0.070700
     12 HAD1        -1.5270     1.1410     1.1510 hc         1 W16       0.082700
     13 HAD2        -1.3870    -0.5950     1.4300 hc         1 W16       0.082700
     14 HAA1         3.9800    -1.1900    -0.8560 hn         1 W16       0.429300
     15 HAA2         4.4960     0.3980    -0.5890 hn         1 W16       0.429300
@<TRIPOS>BOND
     1     1     2 1   
     2     2     3 1   
     3     2    10 1   
     4     2    11 1   
     5     3     4 1   
     6     3    12 1   
     7     3    13 1   
     8     4     5 1   
     9     4     6 2   
    10     5     8 1   
    11     6     7 1   
    12     7     8 2   
    13     8     9 1   
    14     9    14 1   
    15     9    15 1   
@<TRIPOS>SUBSTRUCTURE
     1 W16         1 TEMP              0 ****  ****    0 ROOT
