@<TRIPOS>MOLECULE
W16
   15    15     1     0     0
SMALL
No Charge or Current Charge


@<TRIPOS>ATOM
      1 ClA         -3.7570    -0.1910    -0.2020 cl         1 W16      -0.276000
      2 CAC         -1.9920     0.0050    -0.5890 c3         1 W16       0.126600
      3 CAD         -1.1590     0.1430     0.6980 c3         1 W16      -0.117700
      4 CAI          0.3060     0.3050     0.4170 cc         1 W16       0.395700
      5 SAG          1.3330    -1.0840     0.2020 ss         1 W16      -0.342800
      6 NAF          0.9070     1.4810     0.2980 nd         1 W16      -0.285000
      7 NAE          2.2580     1.3370     0.0290 nd         1 W16      -0.411000
      8 CAH          2.5900     0.0670    -0.0380 cc         1 W16       0.666300
      9 NAA          3.8510    -0.3100    -0.2940 nv         1 W16      -1.032900
     10 HAC1        -1.6750    -0.8770    -1.1610 h1         1 W16       0.070700
     11 HAC2        -1.8840     0.8980    -1.2170 h1         1 W16       0.070700
     12 HAD1        -1.5220     1.0050     1.2710 hc         1 W16       0.082700
     13 HAD2        -1.3150    -0.7410     1.3260 hc         1 W16       0.082700
     14 HAA1         3.9850    -1.2590    -0.6250 hn         1 W16       0.484500
     15 HAA2         4.4630     0.3980    -0.6850 hn         1 W16       0.484500
@<TRIPOS>BOND
     1     1     2 1   
     2     2     3 1   
     3     2    10 1   
     4     2    11 1   
     5     3     4 1   
     6     3    12 1   
     7     3    13 1   
     8     4     5 1   
     9     4     6 2   
    10     5     8 1   
    11     6     7 1   
    12     7     8 2   
    13     8     9 1   
    14     9    14 1   
    15     9    15 1   
@<TRIPOS>SUBSTRUCTURE
     1 W16         1 TEMP              0 ****  ****    0 ROOT
