@<TRIPOS>MOLECULE
W17
   20    20     1     0     0
SMALL
bcc


@<TRIPOS>ATOM
      1 N1          -6.6830    14.2980    -0.3530 nc         1 W17      -0.541800
      2 C4          -8.2800    14.1510     2.3980 c3         1 W17       0.117400
      3 C5          -5.4640    15.4060     1.1380 cc         1 W17      -0.082300
      4 O           -2.5190    14.4250    -0.8050 o          1 W17      -0.613100
      5 C           -3.1190    14.9540     0.1240 c          1 W17       0.724700
      6 N           -2.4920    15.6300     1.1010 nt         1 W17      -0.677000
      7 C1          -4.5840    14.8730     0.2140 cd         1 W17      -0.353900
      8 N2          -6.6920    15.0470     0.7520 na         1 W17       0.116400
      9 C2          -5.4180    14.1900    -0.6920 cd         1 W17       0.367200
     10 C3          -7.9340    15.2850     1.4560 c3         1 W17       0.051300
     11 O1          -7.2890    14.0800     3.3940 oh         1 W17      -0.603800
     12 H1          -9.2730    14.3560     2.8160 h1         1 W17       0.040200
     13 H2          -8.3560    13.2200     1.8270 h1         1 W17       0.040200
     14 H3          -5.3090    16.0120     2.0170 h4         1 W17       0.173000
     15 H4          -1.4880    15.7000     1.0990 hn         1 W17       0.310500
     16 H5          -2.9770    16.0400     1.8790 hn         1 W17       0.310500
     17 H6          -5.1290    13.6360    -1.5720 h4         1 W17       0.055100
     18 H7          -7.8410    16.2240     2.0020 h1         1 W17       0.074700
     19 H8          -8.7250    15.4070     0.7170 h1         1 W17       0.074700
     20 H9          -7.3530    13.2240     3.8270 ho         1 W17       0.415000
@<TRIPOS>BOND
     1     1     8 1   
     2     1     9 2   
     3     2    10 1   
     4     2    11 1   
     5     2    12 1   
     6     2    13 1   
     7     3     7 2   
     8     3     8 1   
     9     3    14 1   
    10     4     5 2   
    11     5     6 1   
    12     5     7 1   
    13     6    15 1   
    14     6    16 1   
    15     7     9 1   
    16     8    10 1   
    17     9    17 1   
    18    10    18 1   
    19    10    19 1   
    20    11    20 1   
@<TRIPOS>SUBSTRUCTURE
     1 W17         1 TEMP              0 ****  ****    0 ROOT
