@<TRIPOS>MOLECULE
W17
   20    20     1     0     0
SMALL
No Charge or Current Charge


@<TRIPOS>ATOM
      1 N1          -6.6760    14.3590    -0.5450 nc         1 W17      -0.541800
      2 C4          -8.2640    14.1440     2.4730 c3         1 W17       0.140600
      3 C5          -5.3880    15.3040     1.1410 cc         1 W17      -0.115000
      4 O           -2.4260    14.5890    -0.8590 o          1 W17      -0.613100
      5 C           -3.1020    14.9860     0.0740 c          1 W17       0.657700
      6 N           -2.5200    15.5620     1.1430 nt         1 W17      -0.610000
      7 C1          -4.5690    14.8790     0.1250 cd         1 W17      -0.288600
      8 N2          -6.6630    14.9670     0.6970 na         1 W17       0.137800
      9 C2          -5.3950    14.3180    -0.8650 cd         1 W17       0.301900
     10 C3          -7.9280    15.2150     1.4120 c3         1 W17       0.080600
     11 O1          -7.3430    14.2050     3.5760 oh         1 W17      -0.666000
     12 H1          -9.2880    14.3160     2.8300 h1         1 W17       0.040200
     13 H2          -8.2390    13.1510     2.0020 h1         1 W17       0.040200
     14 H3          -5.2000    15.7840     2.0930 h4         1 W17       0.155000
     15 H4          -1.5170    15.6630     1.1640 hn         1 W17       0.310500
     16 H5          -3.0870    15.8860     1.9100 hn         1 W17       0.310500
     17 H6          -5.0990    13.8800    -1.8110 h4         1 W17       0.055100
     18 H7          -7.8740    16.1990     1.8920 h1         1 W17       0.074700
     19 H8          -8.7410    15.2500     0.6770 h1         1 W17       0.074700
     20 H9          -7.6060    13.5010     4.2130 ho         1 W17       0.454000
@<TRIPOS>BOND
     1     1     8 1   
     2     1     9 2   
     3     2    10 1   
     4     2    11 1   
     5     2    12 1   
     6     2    13 1   
     7     3     7 2   
     8     3     8 1   
     9     3    14 1   
    10     4     5 2   
    11     5     6 1   
    12     5     7 1   
    13     6    15 1   
    14     6    16 1   
    15     7     9 1   
    16     8    10 1   
    17     9    17 1   
    18    10    18 1   
    19    10    19 1   
    20    11    20 1   
@<TRIPOS>SUBSTRUCTURE
     1 W17         1 TEMP              0 ****  ****    0 ROOT
