@<TRIPOS>MOLECULE
W18
   31    31     1     0     0
SMALL
abcg2


@<TRIPOS>ATOM
      1 N1          10.0370    14.1600   -50.5630 nv         1 W18      -1.086000
      2 C7          11.4700    14.8490   -48.7370 ca         1 W18      -0.194500
      3 C8          10.7410    13.8580   -49.4170 ca         1 W18       0.319000
      4 C9          10.7980    12.5420   -48.9320 ca         1 W18      -0.194500
      5 C1          13.5390    12.4380   -42.8550 c3         1 W18      -0.089400
      6 C5          12.2650    13.2210   -47.1250 ca         1 W18      -0.201600
      7 C6          12.2220    14.5280   -47.6220 ca         1 W18      -0.027500
      8 C4          13.0950    12.9440   -45.9170 c          1 W18       0.619700
      9 C3          14.7620    10.7860   -44.3200 c3         1 W18       0.141600
     10 C2          13.4110    11.3940   -43.9730 c3         1 W18       0.127700
     11 N           12.7160    11.8910   -45.1620 ns         1 W18      -0.496900
     12 C           12.2100    13.0840   -42.4780 c3         1 W18      -0.083100
     13 C10         11.5420    12.2360   -47.8050 ca         1 W18      -0.027500
     14 H1           9.3090    13.5150   -50.8310 hn         1 W18       0.458500
     15 H2           9.7840    15.1280   -50.6960 hn         1 W18       0.458500
     16 H3          11.4360    15.8710   -49.0950 ha         1 W18       0.114500
     17 H4          10.2570    11.7610   -49.4520 ha         1 W18       0.114500
     18 H5          13.9580    11.9250   -41.9860 hc         1 W18       0.055200
     19 H6          14.2550    13.2040   -43.1540 hc         1 W18       0.055200
     20 H7          12.7810    15.3000   -47.1120 ha         1 W18       0.122000
     21 H8          15.2480    10.4700   -43.3910 h1         1 W18       0.039200
     22 H9          15.3930    11.5330   -44.8070 h1         1 W18       0.039200
     23 H10         12.7760    10.5850   -43.6030 h1         1 W18       0.053700
     24 H11         11.8830    11.3980   -45.4330 hn         1 W18       0.315500
     25 H12         15.4150     9.3270   -45.4550 ho         1 W18       0.444000
     26 H13         12.3390    13.7680   -41.6380 hc         1 W18       0.033700
     27 H14         11.7940    13.6530   -43.3110 hc         1 W18       0.033700
     28 H15         11.4740    12.3290   -42.1880 hc         1 W18       0.033700
     29 H16         11.5750    11.2050   -47.4760 ha         1 W18       0.122000
     30 O           14.5530     9.6620   -45.1810 oh         1 W18      -0.673000
     31 O1          14.0630    13.6580   -45.6270 o          1 W18      -0.626100
@<TRIPOS>BOND
     1     1     3 1   
     2     1    14 1   
     3     1    15 1   
     4     2     3 ar  
     5     2     7 ar  
     6     2    16 1   
     7     3     4 ar  
     8     4    13 ar  
     9     4    17 1   
    10     5    10 1   
    11     5    12 1   
    12     5    18 1   
    13     5    19 1   
    14     6     7 ar  
    15     6     8 1   
    16     6    13 ar  
    17     7    20 1   
    18     8    11 1   
    19     8    31 2   
    20     9    10 1   
    21     9    21 1   
    22     9    22 1   
    23     9    30 1   
    24    10    11 1   
    25    10    23 1   
    26    11    24 1   
    27    12    26 1   
    28    12    27 1   
    29    12    28 1   
    30    13    29 1   
    31    25    30 1   
@<TRIPOS>SUBSTRUCTURE
     1 W18         1 TEMP              0 ****  ****    0 ROOT
