@<TRIPOS>MOLECULE
W18
   31    31     1     0     0
SMALL
No Charge or Current Charge


@<TRIPOS>ATOM
      1 N1           9.9170    14.1720   -50.5100 nv         1 W18      -1.086000
      2 C7          11.7730    14.6870   -49.0860 ca         1 W18      -0.194500
      3 C8          10.6810    13.8790   -49.4160 ca         1 W18       0.319000
      4 C9          10.3720    12.7690   -48.6230 ca         1 W18      -0.194500
      5 C1          13.4050    12.3540   -42.8050 c3         1 W18      -0.089400
      6 C5          12.2630    13.2700   -47.1470 ca         1 W18      -0.201600
      7 C6          12.5610    14.3880   -47.9600 ca         1 W18      -0.027500
      8 C4          13.1320    12.9790   -45.9410 c          1 W18       0.619700
      9 C3          14.9720    10.9460   -44.2940 c3         1 W18       0.141600
     10 C2          13.5020    11.3690   -44.0010 c3         1 W18       0.127700
     11 N           12.7980    11.8650   -45.1990 ns         1 W18      -0.496900
     12 C           11.9610    12.7530   -42.4290 c3         1 W18      -0.083100
     13 C10         11.1530    12.4610   -47.4940 ca         1 W18      -0.027500
     14 H1           9.0350    13.6840   -50.6530 hn         1 W18       0.458500
     15 H2          10.0410    15.0630   -50.9880 hn         1 W18       0.458500
     16 H3          12.0190    15.5500   -49.6980 ha         1 W18       0.114500
     17 H4           9.5250    12.1370   -48.8760 ha         1 W18       0.114500
     18 H5          13.8750    11.8890   -41.9290 hc         1 W18       0.055200
     19 H6          13.9820    13.2610   -43.0190 hc         1 W18       0.055200
     20 H7          13.4060    15.0320   -47.7230 ha         1 W18       0.122000
     21 H8          15.4130    10.5440   -43.3720 h1         1 W18       0.039200
     22 H9          15.5600    11.8290   -44.5760 h1         1 W18       0.039200
     23 H10         12.9740    10.4570   -43.6940 h1         1 W18       0.053700
     24 H11         12.0190    11.3200   -45.5380 hn         1 W18       0.315500
     25 H12         15.9790     9.7540   -45.4940 ho         1 W18       0.444000
     26 H13         11.9640    13.3950   -41.5400 hc         1 W18       0.033700
     27 H14         11.4790    13.3070   -43.2440 hc         1 W18       0.033700
     28 H15         11.3580    11.8650   -42.2080 hc         1 W18       0.033700
     29 H16         10.8780    11.5900   -46.9040 ha         1 W18       0.122000
     30 O           15.0290     9.9540   -45.3370 oh         1 W18      -0.673000
     31 O1          14.0750    13.6990   -45.6410 o          1 W18      -0.626100
@<TRIPOS>BOND
     1     1     3 1   
     2     1    14 1   
     3     1    15 1   
     4     2     3 ar  
     5     2     7 ar  
     6     2    16 1   
     7     3     4 ar  
     8     4    13 ar  
     9     4    17 1   
    10     5    10 1   
    11     5    12 1   
    12     5    18 1   
    13     5    19 1   
    14     6     7 ar  
    15     6     8 1   
    16     6    13 ar  
    17     7    20 1   
    18     8    11 1   
    19     8    31 2   
    20     9    10 1   
    21     9    21 1   
    22     9    22 1   
    23     9    30 1   
    24    10    11 1   
    25    10    23 1   
    26    11    24 1   
    27    12    26 1   
    28    12    27 1   
    29    12    28 1   
    30    13    29 1   
    31    25    30 1   
@<TRIPOS>SUBSTRUCTURE
     1 W18         1 TEMP              0 ****  ****    0 ROOT
