@<TRIPOS>MOLECULE
W19
   57    61     1     0     0
SMALL
bcc


@<TRIPOS>ATOM
      1 C1          -6.4960    -2.0900    -2.1580 ca         1 W19      -0.112000
      2 C2          -1.0500    -0.2500    -0.7160 ca         1 W19      -0.155000
      3 C3          -5.6850    -0.9670    -2.3670 ca         1 W19      -0.137000
      4 C4          -2.3880    -0.3130    -1.0600 ca         1 W19      -0.152000
      5 C5          -6.8230    -2.5090    -0.8850 ca         1 W19      -0.101000
      6 C6          -5.1530    -0.0370     1.2650 cc         1 W19      -0.109200
      7 C7          -1.1740     2.1400    -0.5740 ca         1 W19      -0.108000
      8 C8          -5.6620    -0.7050     2.3230 cd         1 W19      -0.108400
      9 C9           1.9620     3.7730     1.5640 ca         1 W19       0.738900
     10 C10         -5.5230    -0.6390     0.0170 ca         1 W19      -0.093800
     11 C11          3.1470     1.6400     0.4460 ca         1 W19      -0.442400
     12 C12         -0.4210     0.9710    -0.4700 ca         1 W19       0.153600
     13 C13         -5.2080    -0.2530    -1.2920 ca         1 W19       0.133100
     14 C14         -3.1420     0.8480    -1.1560 ca         1 W19       0.109100
     15 C15         -6.3310    -1.7750     0.1930 ca         1 W19      -0.028100
     16 C16         -2.5170     2.0620    -0.9020 ca         1 W19       0.018400
     17 C17          3.8730     2.6020     1.1850 ca         1 W19       0.759200
     18 C18          1.7460     1.8600     0.4010 ca         1 W19       0.756200
     19 C19          3.7110     0.5200    -0.2820 ce         1 W19      -0.004200
     20 C20          4.8390    -0.1650    -0.0320 cf         1 W19      -0.227400
     21 C21          5.1590    -1.2800    -0.9750 c          1 W19       0.675300
     22 C22          5.7540     0.1960     1.0980 c3         1 W19      -0.044200
     23 C23          6.2050     1.6530     1.0010 c3         1 W19       0.239800
     24 C24          6.3730    -3.3930    -1.2710 c3         1 W19       0.099000
     25 C25          7.7220    -3.9090    -0.8240 c3         1 W19       0.119400
     26 N26          3.2540     3.6680     1.7380 nb         1 W19      -0.831000
     27 N27          1.1620     2.9280     0.9360 nb         1 W19      -0.816000
     28 N28          5.1940     2.5990     1.4000 nu         1 W19      -0.862900
     29 N30          5.9990    -2.2220    -0.5100 ns         1 W19      -0.567900
     30 O31          4.6720    -1.3410    -2.1000 o          1 W19      -0.618100
     31 O32          7.6390    -4.2580     0.5410 oh         1 W19      -0.608800
     32 O33         -4.4560     0.8730    -1.5060 os         1 W19      -0.234200
     33 S34         -6.6090    -2.0790     1.8760 ss         1 W19      -0.066500
     34 CL1         -3.4440     3.5160    -1.0070 cl         1 W19      -0.086400
     35 H1          -6.8630    -2.6410    -3.0140 ha         1 W19       0.136000
     36 H2          -0.4860    -1.1710    -0.6440 ha         1 W19       0.135000
     37 H3          -5.4340    -0.6560    -3.3730 ha         1 W19       0.150000
     38 H4          -2.8370    -1.2780    -1.2560 ha         1 W19       0.150000
     39 H5          -7.4470    -3.3800    -0.7300 ha         1 W19       0.143000
     40 H6          -4.5430     0.8490     1.3630 ha         1 W19       0.167000
     41 H7          -0.7310     3.1040    -0.3870 ha         1 W19       0.180000
     42 H8          -5.5370    -0.4630     3.3680 h4         1 W19       0.169000
     43 H9           1.4860     4.6490     1.9940 h5         1 W19       0.047100
     44 H10          3.1470     0.1930    -1.1490 ha         1 W19       0.145000
     45 H11          5.2800     0.0250     2.0680 hc         1 W19       0.057200
     46 H12          6.6590    -0.4100     1.0870 hc         1 W19       0.057200
     47 H13          7.0500     1.8170     1.6690 h1         1 W19       0.049700
     48 H14          6.5580     1.8520    -0.0140 h1         1 W19       0.049700
     49 H15          6.4320    -3.1320    -2.3270 h1         1 W19       0.061200
     50 H16          5.6180    -4.1800    -1.1750 h1         1 W19       0.061200
     51 H17          7.9870    -4.7700    -1.4490 h1         1 W19       0.030700
     52 H18          8.4790    -3.1350    -0.9970 h1         1 W19       0.030700
     53 H19          5.5120     3.3910     1.9370 hn         1 W19       0.450800
     54 H20          1.3630     0.0310    -0.3600 hn         1 W19       0.448800
     55 H21          6.2370    -2.2340     0.4680 hn         1 W19       0.324500
     56 H22          8.5260    -4.4310     0.8670 ho         1 W19       0.408000
     57 N29          0.9450     0.9310    -0.1890 nu         1 W19      -0.739300
@<TRIPOS>BOND
     1     1     3 ar  
     2     1     5 ar  
     3     1    35 1   
     4     2     4 ar  
     5     2    12 ar  
     6     2    36 1   
     7     3    13 ar  
     8     3    37 1   
     9     4    14 ar  
    10     4    38 1   
    11     5    15 ar  
    12     5    39 1   
    13     6     8 2   
    14     6    10 1   
    15     6    40 1   
    16     7    12 ar  
    17     7    16 ar  
    18     7    41 1   
    19     8    33 1   
    20     8    42 1   
    21     9    26 ar  
    22     9    27 ar  
    23     9    43 1   
    24    10    13 ar  
    25    10    15 ar  
    26    11    17 ar  
    27    11    18 ar  
    28    11    19 1   
    29    12    57 1   
    30    13    32 1   
    31    14    16 ar  
    32    14    32 1   
    33    15    33 1   
    34    16    34 1   
    35    17    26 ar  
    36    17    28 1   
    37    18    27 ar  
    38    18    57 1   
    39    19    20 2   
    40    19    44 1   
    41    20    21 1   
    42    20    22 1   
    43    21    29 1   
    44    21    30 2   
    45    22    23 1   
    46    22    45 1   
    47    22    46 1   
    48    23    28 1   
    49    23    47 1   
    50    23    48 1   
    51    24    25 1   
    52    24    29 1   
    53    24    49 1   
    54    24    50 1   
    55    25    31 1   
    56    25    51 1   
    57    25    52 1   
    58    28    53 1   
    59    29    55 1   
    60    31    56 1   
    61    54    57 1   
@<TRIPOS>SUBSTRUCTURE
     1 W19         1 TEMP              0 ****  ****    0 ROOT
