@<TRIPOS>MOLECULE
W19
   57    61     1     0     0
SMALL
No Charge or Current Charge


@<TRIPOS>ATOM
      1 C1          -6.9510    -1.9410    -2.1640 ca         1 W19      -0.094000
      2 C2          -1.2560    -0.4370    -0.4880 ca         1 W19      -0.137000
      3 C3          -6.0070    -0.9410    -2.4830 ca         1 W19      -0.119000
      4 C4          -2.5880    -0.4370    -0.9420 ca         1 W19      -0.134000
      5 C5          -7.3170    -2.1650    -0.8220 ca         1 W19      -0.083000
      6 C6          -5.3460     0.3160     1.0500 cc         1 W19      -0.159200
      7 C7          -1.1260     1.9600    -0.8330 ca         1 W19      -0.090000
      8 C8          -5.9330    -0.1680     2.2080 cd         1 W19      -0.158400
      9 C9           1.8810     3.5430     1.8500 ca         1 W19       0.212900
     10 C10         -5.8090    -0.3930    -0.1250 ca         1 W19      -0.093800
     11 C11          3.0560     1.4210     0.6510 ca         1 W19      -0.311800
     12 C12         -0.5230     0.7590    -0.4170 ca         1 W19       0.292000
     13 C13         -5.4230    -0.1670    -1.4620 ca         1 W19       0.133100
     14 C14         -3.1980     0.7720    -1.3370 ca         1 W19       0.109100
     15 C15         -6.7330    -1.3760     0.1810 ca         1 W19      -0.155000
     16 C16         -2.4550     1.9690    -1.2880 ca         1 W19       0.110000
     17 C17          3.7960     2.3950     1.3660 ca         1 W19       0.430900
     18 C18          1.6600     1.6350     0.6170 ca         1 W19       0.427900
     19 C19          3.6560     0.2400    -0.0700 ce         1 W19      -0.054200
     20 C20          4.8230    -0.4390     0.1470 cf         1 W19      -0.227400
     21 C21          5.1730    -1.6170    -0.7350 c          1 W19       0.608300
     22 C22          5.7840     0.0160     1.2440 c3         1 W19      -0.044200
     23 C23          6.1900     1.4840     1.0490 c3         1 W19       0.239800
     24 C24          6.8620    -3.4290    -1.2290 c3         1 W19       0.099000
     25 C25          8.4070    -3.5070    -1.2010 c3         1 W19       0.142600
     26 N26          3.2140     3.4450     1.9590 nb         1 W19      -0.305000
     27 N27          1.0730     2.6830     1.2140 nb         1 W19      -0.290000
     28 N28          5.1670     2.3960     1.5680 nu         1 W19      -0.918100
     29 N30          6.3510    -2.2770    -0.4750 ns         1 W19      -0.500900
     30 O31          4.4450    -1.9870    -1.6450 o          1 W19      -0.618100
     31 O32          8.8960    -3.4380     0.1500 oh         1 W19      -0.671000
     32 O33         -4.5010     0.8000    -1.7910 os         1 W19      -0.234200
     33 S34         -7.0790    -1.5080     1.9180 ss         1 W19       0.060400
     34 Cl1         -3.1780     3.4960    -1.7940 cl         1 W19      -0.178000
     35 H1          -7.3960    -2.5400    -2.9550 ha         1 W19       0.118000
     36 H2          -0.7980    -1.3750    -0.1830 ha         1 W19       0.117000
     37 H3          -5.7240    -0.7710    -3.5180 ha         1 W19       0.132000
     38 H4          -3.1360    -1.3750    -0.9880 ha         1 W19       0.132000
     39 H5          -8.0440    -2.9350    -0.5700 ha         1 W19       0.125000
     40 H6          -4.6330     1.1370     1.0440 ha         1 W19       0.217000
     41 H7          -0.5670     2.8890    -0.8200 ha         1 W19       0.162000
     42 H8          -5.7720     0.1790     3.2240 h4         1 W19       0.219000
     43 H9           1.4080     4.3960     2.3330 h5         1 W19       0.047100
     44 H10          3.0390    -0.1140    -0.8980 ha         1 W19       0.195000
     45 H11          5.3300    -0.1140     2.2340 hc         1 W19       0.057200
     46 H12          6.7110    -0.5640     1.2740 hc         1 W19       0.057200
     47 H13          7.1370     1.6670     1.5760 h1         1 W19       0.049700
     48 H14          6.3660     1.6720    -0.0190 h1         1 W19       0.049700
     49 H15          6.5310    -3.3650    -2.2740 h1         1 W19       0.061200
     50 H16          6.4440    -4.3470    -0.7960 h1         1 W19       0.061200
     51 H17          8.7270    -4.4420    -1.6800 h1         1 W19       0.030700
     52 H18          8.8140    -2.6750    -1.7910 h1         1 W19       0.030700
     53 H19          5.4980     3.1880     2.1200 hn         1 W19       0.506000
     54 H20          1.1940    -0.2310     0.0330 hn         1 W19       0.504000
     55 H21          6.9100    -1.9450     0.2990 hn         1 W19       0.324500
     56 H22          9.8750    -3.5230     0.1060 ho         1 W19       0.447000
     57 N29          0.8030     0.7090     0.0300 nu         1 W19      -0.932900
@<TRIPOS>BOND
     1     1     3 ar  
     2     1     5 ar  
     3     1    35 1   
     4     2     4 ar  
     5     2    12 ar  
     6     2    36 1   
     7     3    13 ar  
     8     3    37 1   
     9     4    14 ar  
    10     4    38 1   
    11     5    15 ar  
    12     5    39 1   
    13     6     8 2   
    14     6    10 1   
    15     6    40 1   
    16     7    12 ar  
    17     7    16 ar  
    18     7    41 1   
    19     8    33 1   
    20     8    42 1   
    21     9    26 ar  
    22     9    27 ar  
    23     9    43 1   
    24    10    13 ar  
    25    10    15 ar  
    26    11    17 ar  
    27    11    18 ar  
    28    11    19 1   
    29    12    57 1   
    30    13    32 1   
    31    14    16 ar  
    32    14    32 1   
    33    15    33 1   
    34    16    34 1   
    35    17    26 ar  
    36    17    28 1   
    37    18    27 ar  
    38    18    57 1   
    39    19    20 2   
    40    19    44 1   
    41    20    21 1   
    42    20    22 1   
    43    21    29 1   
    44    21    30 2   
    45    22    23 1   
    46    22    45 1   
    47    22    46 1   
    48    23    28 1   
    49    23    47 1   
    50    23    48 1   
    51    24    25 1   
    52    24    29 1   
    53    24    49 1   
    54    24    50 1   
    55    25    31 1   
    56    25    51 1   
    57    25    52 1   
    58    28    53 1   
    59    29    55 1   
    60    31    56 1   
    61    54    57 1   
@<TRIPOS>SUBSTRUCTURE
     1 W19         1 TEMP              0 ****  ****    0 ROOT
