@<TRIPOS>MOLECULE
W1A
   28    28     1     0     0
SMALL
abcg2


@<TRIPOS>ATOM
      1 N1           4.7670    23.6700    16.9040 n7         1 W1A      -0.839400
      2 C4           5.3170    24.9860    16.5640 c6         1 W1A       0.150800
      3 C5           5.7810    22.6180    16.7640 c6         1 W1A       0.150800
      4 C6           7.0500    22.8750    17.5840 c6         1 W1A      -0.103900
      5 O1           8.1230    23.5410    12.4720 o          1 W1A      -0.552000
      6 S            8.8280    23.2690    13.7090 s6         1 W1A       1.226100
      7 O           10.2480    23.5550    13.7640 o          1 W1A      -0.552000
      8 C            8.6210    21.5610    14.1330 c3         1 W1A      -0.353100
      9 N            8.0030    24.0610    14.8740 n7         1 W1A      -0.924300
     10 C1           8.6220    24.3490    16.1770 c3         1 W1A       0.232800
     11 C2           7.6610    24.2720    17.3660 c6         1 W1A      -0.062700
     12 C3           6.5670    25.3570    17.3700 c6         1 W1A      -0.103900
     13 H1           4.4510    23.6910    17.8700 hn         1 W1A       0.399000
     14 H3           5.5310    24.9850    15.4930 h1         1 W1A       0.053450
     15 H4           4.5420    25.7380    16.7280 h1         1 W1A       0.053450
     16 H5           5.3360    21.6670    17.0670 h1         1 W1A       0.053450
     17 H6           6.0280    22.5380    15.7040 h1         1 W1A       0.053450
     18 H7           6.7920    22.7780    18.6440 hc         1 W1A       0.042200
     19 H8           7.7950    22.1040    17.3660 hc         1 W1A       0.042200
     20 H9           9.0150    21.3980    15.1350 h1         1 W1A       0.102700
     21 H10          7.5620    21.3190    14.0910 h1         1 W1A       0.102700
     22 H11          9.1870    20.9810    13.4060 h1         1 W1A       0.102700
     23 H12          7.4490    24.8030    14.4660 hn         1 W1A       0.497000
     24 H13          9.4160    23.6180    16.3280 h1         1 W1A       0.048200
     25 H14          9.0920    25.3360    16.1510 h1         1 W1A       0.048200
     26 H15          8.3120    24.4780    18.2220 hc         1 W1A       0.047700
     27 H16          6.9790    26.3050    17.0090 hc         1 W1A       0.042200
     28 H17          6.2560    25.5230    18.4060 hc         1 W1A       0.042200
@<TRIPOS>BOND
     1     1     2 1   
     2     1     3 1   
     3     1    13 1   
     4     2    12 1   
     5     2    14 1   
     6     2    15 1   
     7     3     4 1   
     8     3    16 1   
     9     3    17 1   
    10     4    11 1   
    11     4    18 1   
    12     4    19 1   
    13     5     6 2   
    14     6     7 2   
    15     6     8 1   
    16     6     9 1   
    17     8    20 1   
    18     8    21 1   
    19     8    22 1   
    20     9    10 1   
    21     9    23 1   
    22    10    11 1   
    23    10    24 1   
    24    10    25 1   
    25    11    12 1   
    26    11    26 1   
    27    12    27 1   
    28    12    28 1   
@<TRIPOS>SUBSTRUCTURE
     1 W1A         1 TEMP              0 ****  ****    0 ROOT
