@<TRIPOS>MOLECULE
W1A
   28    28     1     0     0
SMALL
No Charge or Current Charge


@<TRIPOS>ATOM
      1 N1           4.6110    24.0310    17.0180 n7         1 W1A      -0.839400
      2 C4           5.3950    25.1890    16.5260 c6         1 W1A       0.150800
      3 C5           5.3730    22.7610    16.9460 c6         1 W1A       0.150800
      4 C6           6.6660    22.8460    17.7950 c6         1 W1A      -0.103900
      5 O1           7.7040    23.1440    12.4620 o          1 W1A      -0.552000
      6 S            8.6820    23.3190    13.5360 s6         1 W1A       1.226100
      7 O            9.6890    24.3790    13.4730 o          1 W1A      -0.552000
      8 C            9.4490    21.7470    13.8690 c3         1 W1A      -0.353100
      9 N            7.7940    23.5860    14.9100 n7         1 W1A      -0.924300
     10 C1           8.4980    23.8080    16.1820 c3         1 W1A       0.232800
     11 C2           7.5650    24.0610    17.4140 c6         1 W1A      -0.062700
     12 C3           6.7080    25.3620    17.3340 c6         1 W1A      -0.103900
     13 H1           4.3710    24.2030    18.0010 hn         1 W1A       0.399000
     14 H3           5.6180    25.0550    15.4580 h1         1 W1A       0.053450
     15 H4           4.7910    26.1050    16.6140 h1         1 W1A       0.053450
     16 H5           4.7480    21.9360    17.3180 h1         1 W1A       0.053450
     17 H6           5.6200    22.5310    15.8990 h1         1 W1A       0.053450
     18 H7           6.3860    22.9260    18.8550 hc         1 W1A       0.042200
     19 H8           7.2330    21.9100    17.7030 hc         1 W1A       0.042200
     20 H9          10.1400    21.8780    14.7070 h1         1 W1A       0.102700
     21 H10          8.6510    21.0390    14.1130 h1         1 W1A       0.102700
     22 H11          9.9840    21.4480    12.9620 h1         1 W1A       0.102700
     23 H12          7.3330    24.4500    14.6410 hn         1 W1A       0.497000
     24 H13          9.1200    22.9360    16.4250 h1         1 W1A       0.048200
     25 H14          9.1780    24.6680    16.0970 h1         1 W1A       0.048200
     26 H15          8.2740    24.2000    18.2420 hc         1 W1A       0.047700
     27 H16          7.3020    26.1840    16.9120 hc         1 W1A       0.042200
     28 H17          6.4480    25.6760    18.3550 hc         1 W1A       0.042200
@<TRIPOS>BOND
     1     1     2 1   
     2     1     3 1   
     3     1    13 1   
     4     2    12 1   
     5     2    14 1   
     6     2    15 1   
     7     3     4 1   
     8     3    16 1   
     9     3    17 1   
    10     4    11 1   
    11     4    18 1   
    12     4    19 1   
    13     5     6 2   
    14     6     7 2   
    15     6     8 1   
    16     6     9 1   
    17     8    20 1   
    18     8    21 1   
    19     8    22 1   
    20     9    10 1   
    21     9    23 1   
    22    10    11 1   
    23    10    24 1   
    24    10    25 1   
    25    11    12 1   
    26    11    26 1   
    27    12    27 1   
    28    12    28 1   
@<TRIPOS>SUBSTRUCTURE
     1 W1A         1 TEMP              0 ****  ****    0 ROOT
