@<TRIPOS>MOLECULE
W1B
   32    33     1     0     0
SMALL
abcg2


@<TRIPOS>ATOM
      1 C4          22.5730    16.6320    -7.1610 c          1 W1B       0.574000
      2 C5          24.9950    16.8810    -7.6660 c          1 W1B       0.549000
      3 C6          27.0790    19.4390    -7.6910 c          1 W1B       0.625700
      4 N1          23.8510    16.1520    -7.4050 ns         1 W1B      -0.482500
      5 N3          31.0760    21.9970   -10.8060 nv         1 W1B      -1.089000
      6 C2          23.4630    18.8540    -7.9830 c6         1 W1B      -0.077400
      7 C1          24.8570    18.3980    -7.5590 c6         1 W1B       0.017700
      8 C3          22.4080    18.1280    -7.1560 c6         1 W1B      -0.160400
      9 O1          26.0350    16.3220    -7.9450 o          1 W1B      -0.505000
     10 O2          21.6630    15.8510    -6.9540 o          1 W1B      -0.514000
     11 N2          25.9000    19.0710    -8.2940 ns         1 W1B      -0.505900
     12 C7          28.0700    20.1100    -8.5600 ca         1 W1B      -0.298600
     13 O3          27.2770    19.2460    -6.4930 o          1 W1B      -0.580100
     14 C8          29.4310    19.9160    -8.2780 ca         1 W1B       0.025000
     15 C9          30.4290    20.5040    -9.0190 ca         1 W1B      -0.228000
     16 C10         30.0940    21.3570   -10.0900 ca         1 W1B       0.367000
     17 C11         28.7430    21.5880   -10.3690 ca         1 W1B      -0.241000
     18 C12         27.7440    20.9780    -9.6220 ca         1 W1B       0.218100
     19 O4          26.4660    21.3070    -9.9610 oh         1 W1B      -0.547100
     20 H6          23.9530    15.1430    -7.4240 hn         1 W1B       0.332500
     21 H12         32.0050    21.6080   -10.7640 hn         1 W1B       0.467000
     22 H13         30.8250    22.3690   -11.7090 hn         1 W1B       0.467000
     23 H3          23.3810    19.9300    -7.8350 hc         1 W1B       0.063700
     24 H2          23.3180    18.6520    -9.0470 hc         1 W1B       0.063700
     25 H1          25.0070    18.6350    -6.5020 h1         1 W1B       0.112700
     26 H5          21.3980    18.3480    -7.4980 hc         1 W1B       0.085200
     27 H4          22.4710    18.4430    -6.1090 hc         1 W1B       0.085200
     28 H7          25.9340    18.8790    -9.2860 hn         1 W1B       0.315500
     29 H8          29.6890    19.2640    -7.4540 ha         1 W1B       0.132000
     30 H9          31.4700    20.3190    -8.7880 ha         1 W1B       0.121000
     31 H10         28.4580    22.2620   -11.1670 ha         1 W1B       0.131000
     32 H11         25.8380    20.9170    -9.3330 ho         1 W1B       0.477000
@<TRIPOS>BOND
     1     1     4 1   
     2     1     8 1   
     3     1    10 2   
     4     2     4 1   
     5     2     7 1   
     6     2     9 2   
     7     3    11 1   
     8     3    12 1   
     9     3    13 2   
    10     4    20 1   
    11     5    16 1   
    12     5    21 1   
    13     5    22 1   
    14     6     7 1   
    15     6     8 1   
    16     6    23 1   
    17     6    24 1   
    18     7    11 1   
    19     7    25 1   
    20     8    26 1   
    21     8    27 1   
    22    11    28 1   
    23    12    14 ar  
    24    12    18 ar  
    25    14    15 ar  
    26    14    29 1   
    27    15    16 ar  
    28    15    30 1   
    29    16    17 ar  
    30    17    18 ar  
    31    17    31 1   
    32    18    19 1   
    33    19    32 1   
@<TRIPOS>SUBSTRUCTURE
     1 W1B         1 TEMP              0 ****  ****    0 ROOT
