@<TRIPOS>MOLECULE
W1B
   32    33     1     0     0
SMALL
No Charge or Current Charge


@<TRIPOS>ATOM
      1 C4          22.5780    16.4920    -7.3480 c          1 W1B       0.574000
      2 C5          25.0130    16.8890    -7.4430 c          1 W1B       0.549000
      3 C6          27.1520    19.4220    -7.6070 c          1 W1B       0.625700
      4 N1          23.8870    16.1110    -7.4100 ns         1 W1B      -0.482500
      5 N3          31.0300    21.8490   -10.9930 nv         1 W1B      -1.089000
      6 C2          23.4180    18.8430    -7.9820 c6         1 W1B      -0.077400
      7 C1          24.8090    18.4380    -7.4370 c6         1 W1B       0.017700
      8 C3          22.2950    17.9980    -7.3330 c6         1 W1B      -0.160400
      9 O1          26.1150    16.3630    -7.4360 o          1 W1B      -0.505000
     10 O2          21.6830    15.6640    -7.3610 o          1 W1B      -0.514000
     11 N2          25.8940    19.1910    -8.1150 ns         1 W1B      -0.505900
     12 C7          28.1330    20.1270    -8.5090 ca         1 W1B      -0.298600
     13 O3          27.4490    19.0890    -6.4690 o          1 W1B      -0.580100
     14 C8          29.5080    19.8940    -8.2850 ca         1 W1B       0.025000
     15 C9          30.4760    20.4730    -9.1200 ca         1 W1B      -0.228000
     16 C10         30.0870    21.2910   -10.1810 ca         1 W1B       0.367000
     17 C11         28.7350    21.5500   -10.4010 ca         1 W1B      -0.241000
     18 C12         27.7600    20.9870    -9.5700 ca         1 W1B       0.218100
     19 O4          26.4660    21.3480    -9.7930 oh         1 W1B      -0.547100
     20 H6          24.0480    15.1140    -7.4220 hn         1 W1B       0.332500
     21 H12         31.9910    21.5170   -10.9380 hn         1 W1B       0.467000
     22 H13         30.7420    22.2920   -11.8630 hn         1 W1B       0.467000
     23 H3          23.2360    19.9120    -7.8060 hc         1 W1B       0.063700
     24 H2          23.3940    18.6960    -9.0710 hc         1 W1B       0.063700
     25 H1          24.8310    18.7050    -6.3700 h1         1 W1B       0.112700
     26 H5          21.3010    18.1970    -7.7540 hc         1 W1B       0.085200
     27 H4          22.2510    18.2780    -6.2720 hc         1 W1B       0.085200
     28 H7          25.7600    19.4580    -9.0840 hn         1 W1B       0.315500
     29 H8          29.8330    19.2440    -7.4740 ha         1 W1B       0.132000
     30 H9          31.5290    20.2750    -8.9390 ha         1 W1B       0.121000
     31 H10         28.4340    22.2070   -11.2110 ha         1 W1B       0.131000
     32 H11         26.0630    21.5850    -8.9310 ho         1 W1B       0.477000
@<TRIPOS>BOND
     1     1     4 1   
     2     1     8 1   
     3     1    10 2   
     4     2     4 1   
     5     2     7 1   
     6     2     9 2   
     7     3    11 1   
     8     3    12 1   
     9     3    13 2   
    10     4    20 1   
    11     5    16 1   
    12     5    21 1   
    13     5    22 1   
    14     6     7 1   
    15     6     8 1   
    16     6    23 1   
    17     6    24 1   
    18     7    11 1   
    19     7    25 1   
    20     8    26 1   
    21     8    27 1   
    22    11    28 1   
    23    12    14 ar  
    24    12    18 ar  
    25    14    15 ar  
    26    14    29 1   
    27    15    16 ar  
    28    15    30 1   
    29    16    17 ar  
    30    17    18 ar  
    31    17    31 1   
    32    18    19 1   
    33    19    32 1   
@<TRIPOS>SUBSTRUCTURE
     1 W1B         1 TEMP              0 ****  ****    0 ROOT
