@<TRIPOS>MOLECULE
W1D
   23    23     1     0     0
SMALL
No Charge or Current Charge


@<TRIPOS>ATOM
      1 C4          -9.6000    27.9470    13.1200 ca         1 W1D      -0.200000
      2 C5         -10.6190    27.5720    12.2220 ca         1 W1D       0.241100
      3 C6          -9.4780    28.5780    10.2510 c3         1 W1D      -0.002400
      4 C7          -9.5230    30.1040    10.5680 c          1 W1D       0.704000
      5 C8         -11.7520    26.9070    12.7100 ca         1 W1D      -0.200000
      6 O2          -8.5540    30.7750    10.2410 o          1 W1D      -0.712000
      7 O3         -10.5060    30.5810    11.1220 o          1 W1D      -0.712000
      8 O1         -10.5490    27.8100    10.8610 os         1 W1D      -0.327100
      9 C3          -9.7270    27.6650    14.4900 ca         1 W1D      -0.027000
     10 C9         -11.8840    26.6220    14.0790 ca         1 W1D      -0.027000
     11 C2         -10.8690    27.0000    14.9890 ca         1 W1D      -0.263600
     12 C1         -10.9810    26.7070    16.4730 c          1 W1D       0.597700
     13 O          -10.0890    27.0380    17.2460 o          1 W1D      -0.564100
     14 C          -12.2190    25.9880    17.0160 c3         1 W1D      -0.194100
     15 H1          -8.7060    28.4550    12.7750 ha         1 W1D       0.128000
     16 H2          -9.5440    28.4840     9.1600 h1         1 W1D       0.036700
     17 H3          -8.4980    28.1840    10.5490 h1         1 W1D       0.036700
     18 H4         -12.5370    26.6110    12.0200 ha         1 W1D       0.128000
     19 H6          -8.9260    27.9670    15.1630 ha         1 W1D       0.104000
     20 H7         -12.7810    26.1070    14.4150 ha         1 W1D       0.104000
     21 H8         -12.1800    25.8380    18.1010 hc         1 W1D       0.050033
     22 H9         -13.1150    26.5470    16.7220 hc         1 W1D       0.050033
     23 H10        -12.3440    25.0380    16.4850 hc         1 W1D       0.050033
@<TRIPOS>BOND
     1     1     2 ar  
     2     1     9 ar  
     3     1    15 1   
     4     2     5 ar  
     5     2     8 1   
     6     3     4 1   
     7     3     8 1   
     8     3    16 1   
     9     3    17 1   
    10     4     6 1   
    11     4     7 1   
    12     5    10 ar  
    13     5    18 1   
    14     9    11 ar  
    15     9    19 1   
    16    10    11 ar  
    17    10    20 1   
    18    11    12 1   
    19    12    13 2   
    20    12    14 1   
    21    14    21 1   
    22    14    22 1   
    23    14    23 1   
@<TRIPOS>SUBSTRUCTURE
     1 W1D         1 TEMP              0 ****  ****    0 ROOT
