@<TRIPOS>MOLECULE
W1D
   23    23     1     0     0
SMALL
bcc


@<TRIPOS>ATOM
      1 C4          -9.6250    28.0000    13.1310 ca         1 W1D      -0.218000
      2 C5         -10.6300    27.6280    12.2330 ca         1 W1D       0.241100
      3 C6          -9.5040    28.5410    10.3470 c3         1 W1D      -0.025600
      4 C7          -9.5080    30.0610    10.6250 c          1 W1D       0.914600
      5 C8         -11.7570    26.9550    12.7190 ca         1 W1D      -0.218000
      6 O2          -8.5080    30.6490    10.1740 o          1 W1D      -0.817300
      7 O3         -10.4820    30.5360    11.2270 o          1 W1D      -0.817300
      8 O1         -10.5910    27.8320    10.9170 os         1 W1D      -0.303900
      9 C3          -9.7580    27.7020    14.4740 ca         1 W1D      -0.045000
     10 C9         -11.8750    26.6650    14.0620 ca         1 W1D      -0.045000
     11 C2         -10.8780    27.0330    14.9710 ca         1 W1D      -0.263600
     12 C1         -10.9780    26.7400    16.4190 c          1 W1D       0.597700
     13 O          -10.1170    27.1120    17.1940 o          1 W1D      -0.564100
     14 C          -12.1740    25.9660    16.9070 c3         1 W1D      -0.194100
     15 H1          -8.7350    28.5170    12.8010 ha         1 W1D       0.146000
     16 H2          -9.5970    28.3800     9.2710 h1         1 W1D       0.036700
     17 H3          -8.5470    28.1000    10.6490 h1         1 W1D       0.036700
     18 H4         -12.5390    26.6640    12.0290 ha         1 W1D       0.146000
     19 H6          -8.9690    27.9980    15.1520 ha         1 W1D       0.122000
     20 H7         -12.7620    26.1440    14.3960 ha         1 W1D       0.122000
     21 H8         -12.1110    25.8140    17.9820 hc         1 W1D       0.050033
     22 H9         -13.1020    26.4950    16.6820 hc         1 W1D       0.050033
     23 H10        -12.2360    24.9930    16.4170 hc         1 W1D       0.050033
@<TRIPOS>BOND
     1     1     2 ar  
     2     1     9 ar  
     3     1    15 1   
     4     2     5 ar  
     5     2     8 1   
     6     3     4 1   
     7     3     8 1   
     8     3    16 1   
     9     3    17 1   
    10     4     6 1   
    11     4     7 1   
    12     5    10 ar  
    13     5    18 1   
    14     9    11 ar  
    15     9    19 1   
    16    10    11 ar  
    17    10    20 1   
    18    11    12 1   
    19    12    13 2   
    20    12    14 1   
    21    14    21 1   
    22    14    22 1   
    23    14    23 1   
@<TRIPOS>SUBSTRUCTURE
     1 W1D         1 TEMP              0 ****  ****    0 ROOT
