@<TRIPOS>MOLECULE
W1E
   31    31     1     0     0
SMALL
abcg2


@<TRIPOS>ATOM
      1 C7          28.1580    16.5640    39.6330 c5         1 W1E      -0.307400
      2 C8          29.5600    16.2480    37.4440 ce         1 W1E      -0.376100
      3 C9          28.2730    16.0080    37.2380 c2         1 W1E      -0.082200
      4 C1          23.2340    11.9830    36.9130 c3         1 W1E      -0.064700
      5 C5          26.3570    15.1050    38.6200 c3         1 W1E      -0.130400
      6 C6          27.3190    16.2700    38.3790 c5         1 W1E      -0.019500
      7 C4          25.3730    14.8910    37.4950 c          1 W1E       0.589100
      8 C3          23.7250    13.3960    36.6450 c3         1 W1E       0.169600
      9 C2          22.5800    11.8560    38.2900 c3         1 W1E      -0.085600
     10 S           29.8490    16.8490    39.0690 sy         1 W1E       1.035100
     11 O2          30.7870    15.9990    39.7850 o          1 W1E      -0.517500
     12 O           24.7450    13.7230    37.6270 os         1 W1E      -0.451100
     13 C           24.3430    10.9480    36.7120 c3         1 W1E      -0.085600
     14 H1          27.8320    17.4450    40.1810 h1         1 W1E       0.112200
     15 H2          28.2060    15.7070    40.3030 h1         1 W1E       0.112200
     16 H3          30.3880    16.1490    36.7570 h4         1 W1E       0.245000
     17 H4          27.8880    15.6540    36.2910 ha         1 W1E       0.211000
     18 H5          22.4640    11.8090    36.1530 hc         1 W1E       0.053700
     19 H6          25.7680    15.2940    39.5230 hc         1 W1E       0.082700
     20 H7          26.9050    14.1770    38.7970 hc         1 W1E       0.082700
     21 H8          26.7280    17.1520    38.1190 hc         1 W1E       0.101700
     22 H9          24.1640    13.4810    35.6510 h1         1 W1E       0.052700
     23 H10         22.9180    14.1230    36.7400 h1         1 W1E       0.052700
     24 H11         21.7760    12.5840    38.4140 hc         1 W1E       0.038533
     25 H12         22.1580    10.8570    38.4220 hc         1 W1E       0.038533
     26 H13         23.3110    12.0180    39.0850 hc         1 W1E       0.038533
     27 H14         23.9480     9.9370    36.8290 hc         1 W1E       0.038533
     28 H15         24.7810    11.0290    35.7150 hc         1 W1E       0.038533
     29 H16         25.1410    11.0840    37.4450 hc         1 W1E       0.038533
     30 O3          30.1550    18.2710    39.0350 o          1 W1E      -0.517500
     31 O1          25.1600    15.6780    36.5980 o          1 W1E      -0.493000
@<TRIPOS>BOND
     1     1     6 1   
     2     1    10 1   
     3     1    14 1   
     4     1    15 1   
     5     2     3 2   
     6     2    10 1   
     7     2    16 1   
     8     3     6 1   
     9     3    17 1   
    10     4     8 1   
    11     4     9 1   
    12     4    13 1   
    13     4    18 1   
    14     5     6 1   
    15     5     7 1   
    16     5    19 1   
    17     5    20 1   
    18     6    21 1   
    19     7    12 1   
    20     7    31 2   
    21     8    12 1   
    22     8    22 1   
    23     8    23 1   
    24     9    24 1   
    25     9    25 1   
    26     9    26 1   
    27    10    11 2   
    28    10    30 2   
    29    13    27 1   
    30    13    28 1   
    31    13    29 1   
@<TRIPOS>SUBSTRUCTURE
     1 W1E         1 TEMP              0 ****  ****    0 ROOT
