@<TRIPOS>MOLECULE
W1E
   31    31     1     0     0
SMALL
No Charge or Current Charge


@<TRIPOS>ATOM
      1 C7          28.2180    16.5880    39.4600 c5         1 W1E      -0.307400
      2 C8          29.1280    14.9900    37.7240 ce         1 W1E      -0.376100
      3 C9          27.7790    14.9520    37.6680 c2         1 W1E      -0.082200
      4 C1          23.6310    12.1720    36.7680 c3         1 W1E      -0.064700
      5 C5          25.7790    15.8180    39.0480 c3         1 W1E      -0.130400
      6 C6          27.1520    16.1390    38.4070 c5         1 W1E      -0.019500
      7 C4          24.7130    15.5100    37.9940 c          1 W1E       0.589100
      8 C3          23.6040    13.7210    36.8230 c3         1 W1E       0.169600
      9 C2          23.1880    11.5290    38.1040 c3         1 W1E      -0.085600
     10 S           29.8440    16.2990    38.6700 sy         1 W1E       1.035100
     11 O2          30.8080    15.7520    39.6320 o          1 W1E      -0.517500
     12 O           24.5650    14.1630    37.7990 os         1 W1E      -0.451100
     13 C           25.0000    11.6250    36.2990 c3         1 W1E      -0.085600
     14 H1          28.1570    17.6410    39.7530 h1         1 W1E       0.112200
     15 H2          28.2110    15.9510    40.3510 h1         1 W1E       0.112200
     16 H3          29.8400    14.2860    37.2940 h4         1 W1E       0.245000
     17 H4          27.2160    14.1810    37.1340 ha         1 W1E       0.211000
     18 H5          22.8930    11.8760    36.0120 hc         1 W1E       0.053700
     19 H6          25.4430    16.6790    39.6360 hc         1 W1E       0.082700
     20 H7          25.9000    14.9430    39.6980 hc         1 W1E       0.082700
     21 H8          26.9830    16.9500    37.6850 hc         1 W1E       0.101700
     22 H9          23.8450    14.1240    35.8310 h1         1 W1E       0.052700
     23 H10         22.5940    14.0590    37.0910 h1         1 W1E       0.052700
     24 H11         22.1990    11.8980    38.4020 hc         1 W1E       0.038533
     25 H12         23.1260    10.4380    38.0060 hc         1 W1E       0.038533
     26 H13         23.8970    11.7590    38.9080 hc         1 W1E       0.038533
     27 H14         24.9570    10.5360    36.1700 hc         1 W1E       0.038533
     28 H15         25.2860    12.0680    35.3370 hc         1 W1E       0.038533
     29 H16         25.7870    11.8500    37.0290 hc         1 W1E       0.038533
     30 O3          30.1690    17.4190    37.7780 o          1 W1E      -0.517500
     31 O1          24.0810    16.3710    37.3970 o          1 W1E      -0.493000
@<TRIPOS>BOND
     1     1     6 1   
     2     1    10 1   
     3     1    14 1   
     4     1    15 1   
     5     2     3 2   
     6     2    10 1   
     7     2    16 1   
     8     3     6 1   
     9     3    17 1   
    10     4     8 1   
    11     4     9 1   
    12     4    13 1   
    13     4    18 1   
    14     5     6 1   
    15     5     7 1   
    16     5    19 1   
    17     5    20 1   
    18     6    21 1   
    19     7    12 1   
    20     7    31 2   
    21     8    12 1   
    22     8    22 1   
    23     8    23 1   
    24     9    24 1   
    25     9    25 1   
    26     9    26 1   
    27    10    11 2   
    28    10    30 2   
    29    13    27 1   
    30    13    28 1   
    31    13    29 1   
@<TRIPOS>SUBSTRUCTURE
     1 W1E         1 TEMP              0 ****  ****    0 ROOT
