@<TRIPOS>MOLECULE
W1F
   35    36     1     0     0
SMALL
abcg2


@<TRIPOS>ATOM
      1 C1          24.7930    18.0460    -7.6140 c6         1 W1F       0.035700
      2 N2          25.7640    18.8480    -8.3060 ns         1 W1F      -0.491900
      3 C3          22.5900    17.9180    -6.4360 c6         1 W1F      -0.159400
      4 C4          22.2610    16.6630    -7.1970 c          1 W1F       0.574000
      5 C5          24.4020    16.8370    -8.4540 c          1 W1F       0.555000
      6 C6          26.9740    19.1490    -7.7720 c          1 W1F       0.636700
      7 C10         29.9200    21.4350    -9.9530 ca         1 W1F       0.370000
      8 C11         30.0770    21.0980    -8.5990 ca         1 W1F      -0.232000
      9 C12         29.0980    20.3690    -7.9610 ca         1 W1F       0.020000
     10 C13         26.4680    20.1750   -11.9900 c3         1 W1F       0.157900
     11 C2          23.5570    18.8340    -7.1770 c6         1 W1F      -0.084400
     12 N1          23.1980    16.2420    -8.1280 ns         1 W1F      -0.484500
     13 O1          25.0880    16.3830    -9.3480 o          1 W1F      -0.509000
     14 O2          21.2460    16.0130    -7.0250 o          1 W1F      -0.520000
     15 O3          27.2720    18.7910    -6.6250 o          1 W1F      -0.633100
     16 C7          27.9250    19.9400    -8.5980 ca         1 W1F      -0.235600
     17 C8          27.7780    20.2890    -9.9630 ca         1 W1F       0.223100
     18 C9          28.7590    21.0180   -10.6210 ca         1 W1F      -0.290000
     19 O4          26.6510    19.8770   -10.6040 os         1 W1F      -0.375100
     20 H1          25.2840    17.6460    -6.7220 h1         1 W1F       0.111700
     21 H7          25.5860    19.1210    -9.2610 hn         1 W1F       0.344500
     22 H5          21.6510    18.4160    -6.2000 hc         1 W1F       0.083700
     23 H4          23.0320    17.5980    -5.4860 hc         1 W1F       0.083700
     24 H9          30.9660    21.4120    -8.0670 ha         1 W1F       0.121000
     25 H10         29.2200    20.1020    -6.9210 ha         1 W1F       0.141000
     26 H14         25.5120    19.7340   -12.2580 h1         1 W1F       0.047033
     27 H15         26.4380    21.2530   -12.1550 h1         1 W1F       0.047033
     28 H13         27.2640    19.7300   -12.5900 h1         1 W1F       0.047033
     29 H3          23.8730    19.6500    -6.5280 hc         1 W1F       0.064200
     30 H2          23.0750    19.2740    -8.0540 hc         1 W1F       0.064200
     31 H6          22.9640    15.4040    -8.6490 hn         1 W1F       0.329500
     32 H8          28.6450    21.2750   -11.6640 ha         1 W1F       0.118000
     33 H12         31.7760    22.2490   -10.1920 hn         1 W1F       0.467000
     34 H11         30.8510    22.1900   -11.6100 hn         1 W1F       0.467000
     35 N3          30.8570    22.1990   -10.6020 nv         1 W1F      -1.093000
@<TRIPOS>BOND
     1     1     2 1   
     2     1     5 1   
     3     1    11 1   
     4     1    20 1   
     5     2     6 1   
     6     2    21 1   
     7     3     4 1   
     8     3    11 1   
     9     3    22 1   
    10     3    23 1   
    11     4    12 1   
    12     4    14 2   
    13     5    12 1   
    14     5    13 2   
    15     6    15 2   
    16     6    16 1   
    17     7     8 ar  
    18     7    18 ar  
    19     7    35 1   
    20     8     9 ar  
    21     8    24 1   
    22     9    16 ar  
    23     9    25 1   
    24    10    19 1   
    25    10    26 1   
    26    10    27 1   
    27    10    28 1   
    28    11    29 1   
    29    11    30 1   
    30    12    31 1   
    31    16    17 ar  
    32    17    18 ar  
    33    17    19 1   
    34    18    32 1   
    35    33    35 1   
    36    34    35 1   
@<TRIPOS>SUBSTRUCTURE
     1 W1F         1 TEMP              0 ****  ****    0 ROOT
