@<TRIPOS>MOLECULE
W1F
   35    36     1     0     0
SMALL
No Charge or Current Charge


@<TRIPOS>ATOM
      1 C1          24.8440    17.9110    -7.5800 c6         1 W1F       0.035700
      2 N2          25.8930    18.7240    -8.2430 ns         1 W1F      -0.491900
      3 C3          22.5360    17.9200    -6.4840 c6         1 W1F      -0.159400
      4 C4          22.1230    16.7600    -7.3970 c          1 W1F       0.574000
      5 C5          24.3570    16.7120    -8.4450 c          1 W1F       0.555000
      6 C6          27.0380    19.2100    -7.6630 c          1 W1F       0.636700
      7 C10         29.9160    21.4850    -9.9840 ca         1 W1F       0.370000
      8 C11         30.1270    21.2170    -8.6350 ca         1 W1F      -0.232000
      9 C12         29.1810    20.4800    -7.9090 ca         1 W1F       0.020000
     10 C13         26.3900    20.0730   -11.9400 c3         1 W1F       0.157900
     11 C2          23.6790    18.7900    -7.0630 c6         1 W1F      -0.084400
     12 N1          23.0660    16.2940    -8.2680 ns         1 W1F      -0.484500
     13 O1          25.0910    16.1260    -9.2260 o          1 W1F      -0.509000
     14 O2          20.9930    16.3020    -7.3930 o          1 W1F      -0.520000
     15 O3          27.2600    19.0050    -6.4760 o          1 W1F      -0.633100
     16 C7          28.0040    19.9980    -8.5280 ca         1 W1F      -0.235600
     17 C8          27.8000    20.2800    -9.9070 ca         1 W1F       0.223100
     18 C9          28.7670    21.0240   -10.6200 ca         1 W1F      -0.290000
     19 O4          26.6610    19.8280   -10.5470 os         1 W1F      -0.375100
     20 H1          25.2960    17.4230    -6.7030 h1         1 W1F       0.111700
     21 H7          25.7980    18.9230    -9.2340 hn         1 W1F       0.344500
     22 H5          21.6520    18.5020    -6.1910 hc         1 W1F       0.083700
     23 H4          22.9210    17.4500    -5.5690 hc         1 W1F       0.083700
     24 H9          31.0230    21.5780    -8.1380 ha         1 W1F       0.121000
     25 H10         29.3730    20.2860    -6.8550 ha         1 W1F       0.141000
     26 H14         25.4320    19.6200   -12.2260 h1         1 W1F       0.047033
     27 H15         26.3290    21.1490   -12.1430 h1         1 W1F       0.047033
     28 H13         27.1730    19.6360   -12.5740 h1         1 W1F       0.047033
     29 H3          24.0420    19.4970    -6.3040 hc         1 W1F       0.064200
     30 H2          23.2850    19.3950    -7.8920 hc         1 W1F       0.064200
     31 H6          22.7730    15.5260    -8.8540 hn         1 W1F       0.329500
     32 H8          28.6360    21.2540   -11.6710 ha         1 W1F       0.118000
     33 H12         31.7500    22.3710   -10.2770 hn         1 W1F       0.467000
     34 H11         30.7700    22.2310   -11.7030 hn         1 W1F       0.467000
     35 N3          30.8350    22.1990   -10.6880 nv         1 W1F      -1.093000
@<TRIPOS>BOND
     1     1     2 1   
     2     1     5 1   
     3     1    11 1   
     4     1    20 1   
     5     2     6 1   
     6     2    21 1   
     7     3     4 1   
     8     3    11 1   
     9     3    22 1   
    10     3    23 1   
    11     4    12 1   
    12     4    14 2   
    13     5    12 1   
    14     5    13 2   
    15     6    15 2   
    16     6    16 1   
    17     7     8 ar  
    18     7    18 ar  
    19     7    35 1   
    20     8     9 ar  
    21     8    24 1   
    22     9    16 ar  
    23     9    25 1   
    24    10    19 1   
    25    10    26 1   
    26    10    27 1   
    27    10    28 1   
    28    11    29 1   
    29    11    30 1   
    30    12    31 1   
    31    16    17 ar  
    32    17    18 ar  
    33    17    19 1   
    34    18    32 1   
    35    33    35 1   
    36    34    35 1   
@<TRIPOS>SUBSTRUCTURE
     1 W1F         1 TEMP              0 ****  ****    0 ROOT
