@<TRIPOS>MOLECULE
W1G
   31    32     1     0     0
SMALL
bcc


@<TRIPOS>ATOM
      1 CAG         -2.3580     0.3310    -0.8000 ca         1 W1G      -0.173500
      2 CAE         -3.5610     0.4940    -1.4770 ca         1 W1G      -0.098000
      3 CAD         -4.7730     0.2790    -0.8380 ca         1 W1G      -0.156000
      4 CAF         -4.7780    -0.1070     0.4970 ca         1 W1G      -0.098000
      5 CAH         -3.5880    -0.2720     1.1880 ca         1 W1G      -0.173500
      6 CAP         -2.3790    -0.0530     0.5350 ca         1 W1G       0.120100
      7 OAM         -1.2490    -0.2560     1.2800 os         1 W1G      -0.263200
      8 CAQ         -0.0360     0.1460     0.7740 ca         1 W1G      -0.005900
      9 CAJ          0.3530     1.4720     0.8080 ca         1 W1G      -0.095000
     10 CAI          1.5970     1.8410     0.3150 ca         1 W1G      -0.158000
     11 CAO          2.4560     0.8830    -0.2130 ca         1 W1G      -0.037300
     12 CAL          3.8220     1.2610    -0.7320 c3         1 W1G      -0.002900
     13 CAC          4.9110     0.7460     0.1600 c2         1 W1G      -0.165200
     14 CAA          5.8400    -0.1270    -0.2090 c2         1 W1G      -0.214000
     15 CAK          2.0590    -0.4500    -0.2310 ca         1 W1G      -0.158000
     16 CAN          0.8130    -0.8310     0.2500 ca         1 W1G       0.145100
     17 OAB          0.4660    -2.1300     0.1990 oh         1 W1G      -0.491100
     18 HAG         -1.4250     0.5040    -1.3200 ha         1 W1G       0.145500
     19 HAE         -3.5410     0.7920    -2.5170 ha         1 W1G       0.132000
     20 HAD         -5.7040     0.4110    -1.3730 ha         1 W1G       0.134000
     21 HAF         -5.7150    -0.2800     1.0100 ha         1 W1G       0.132000
     22 HAH         -3.5910    -0.5710     2.2280 ha         1 W1G       0.145500
     23 HAJ         -0.3170     2.2160     1.2200 ha         1 W1G       0.146000
     24 HAI          1.8950     2.8820     0.3410 ha         1 W1G       0.136000
     25 HAL1         3.9600     0.8730    -1.7440 hc         1 W1G       0.055200
     26 HAL2         3.8880     2.3510    -0.7970 hc         1 W1G       0.055200
     27 HAK          2.7230    -1.2100    -0.6280 ha         1 W1G       0.152000
     28 HAC          4.9070     1.1240     1.1790 ha         1 W1G       0.122000
     29 HAA1         5.8740    -0.5300    -1.2150 ha         1 W1G       0.113000
     30 HAA2         6.6010    -0.4700     0.4800 ha         1 W1G       0.113000
     31 HAB         -0.3600    -2.2780     0.6740 ho         1 W1G       0.443000
@<TRIPOS>BOND
     1     1     2 ar  
     2     1     6 ar  
     3     1    18 1   
     4     2     3 ar  
     5     2    19 1   
     6     3     4 ar  
     7     3    20 1   
     8     4     5 ar  
     9     4    21 1   
    10     5     6 ar  
    11     5    22 1   
    12     6     7 1   
    13     7     8 1   
    14     8     9 ar  
    15     8    16 ar  
    16     9    10 ar  
    17     9    23 1   
    18    10    11 ar  
    19    10    24 1   
    20    11    12 1   
    21    11    15 ar  
    22    12    13 1   
    23    12    25 1   
    24    12    26 1   
    25    13    14 2   
    26    13    28 1   
    27    14    29 1   
    28    14    30 1   
    29    15    16 ar  
    30    15    27 1   
    31    16    17 1   
    32    17    31 1   
@<TRIPOS>SUBSTRUCTURE
     1 W1G         1 TEMP              0 ****  ****    0 ROOT
