@<TRIPOS>MOLECULE
W1G
   31    32     1     0     0
SMALL
No Charge or Current Charge


@<TRIPOS>ATOM
      1 CAG         -2.6240     0.2670    -0.9580 ca         1 W1G      -0.155500
      2 CAE         -3.8490     0.8520    -1.3230 ca         1 W1G      -0.080000
      3 CAD         -4.9090     0.8960    -0.4000 ca         1 W1G      -0.138000
      4 CAF         -4.7470     0.3520     0.8860 ca         1 W1G      -0.080000
      5 CAH         -3.5210    -0.2330     1.2510 ca         1 W1G      -0.155500
      6 CAP         -2.4560    -0.2670     0.3360 ca         1 W1G       0.120100
      7 OAM         -1.2710    -0.8580     0.7140 os         1 W1G      -0.263200
      8 CAQ         -0.0340    -0.3730     0.3370 ca         1 W1G      -0.005900
      9 CAJ          0.2120     1.0140     0.2760 ca         1 W1G      -0.077000
     10 CAI          1.4840     1.4850    -0.0970 ca         1 W1G      -0.140000
     11 CAO          2.5180     0.5800    -0.4050 ca         1 W1G      -0.037300
     12 CAL          3.8970     1.0890    -0.8050 c3         1 W1G      -0.002900
     13 CAC          4.8570     1.1130     0.3670 c2         1 W1G      -0.215200
     14 CAA          6.0510     0.5010     0.4070 c2         1 W1G      -0.314000
     15 CAK          2.2720    -0.8040    -0.3270 ca         1 W1G      -0.140000
     16 CAN          1.0040    -1.2790     0.0450 ca         1 W1G       0.145100
     17 OAB          0.7780    -2.6230     0.1200 oh         1 W1G      -0.530100
     18 HAG         -1.8110     0.2250    -1.6780 ha         1 W1G       0.127500
     19 HAE         -3.9780     1.2670    -2.3210 ha         1 W1G       0.114000
     20 HAD         -5.8570     1.3480    -0.6830 ha         1 W1G       0.116000
     21 HAF         -5.5690     0.3820     1.5980 ha         1 W1G       0.114000
     22 HAH         -3.3940    -0.6560     2.2440 ha         1 W1G       0.127500
     23 HAJ         -0.5740     1.7240     0.5210 ha         1 W1G       0.128000
     24 HAI          1.6650     2.5570    -0.1430 ha         1 W1G       0.118000
     25 HAL1         4.2990     0.4660    -1.6140 hc         1 W1G       0.055200
     26 HAL2         3.8130     2.0980    -1.2270 hc         1 W1G       0.055200
     27 HAK          3.0660    -1.5120    -0.5510 ha         1 W1G       0.134000
     28 HAC          4.5010     1.6880     1.2260 ha         1 W1G       0.172000
     29 HAA1         6.4290    -0.0800    -0.4360 ha         1 W1G       0.163000
     30 HAA2         6.6930     0.5600     1.2870 ha         1 W1G       0.163000
     31 HAB         -0.1570    -2.7390     0.3990 ho         1 W1G       0.482000
@<TRIPOS>BOND
     1     1     2 ar  
     2     1     6 ar  
     3     1    18 1   
     4     2     3 ar  
     5     2    19 1   
     6     3     4 ar  
     7     3    20 1   
     8     4     5 ar  
     9     4    21 1   
    10     5     6 ar  
    11     5    22 1   
    12     6     7 1   
    13     7     8 1   
    14     8     9 ar  
    15     8    16 ar  
    16     9    10 ar  
    17     9    23 1   
    18    10    11 ar  
    19    10    24 1   
    20    11    12 1   
    21    11    15 ar  
    22    12    13 1   
    23    12    25 1   
    24    12    26 1   
    25    13    14 2   
    26    13    28 1   
    27    14    29 1   
    28    14    30 1   
    29    15    16 ar  
    30    15    27 1   
    31    16    17 1   
    32    17    31 1   
@<TRIPOS>SUBSTRUCTURE
     1 W1G         1 TEMP              0 ****  ****    0 ROOT
