@<TRIPOS>MOLECULE
W1I
   25    25     1     0     0
SMALL
No Charge or Current Charge


@<TRIPOS>ATOM
      1 N1          -0.9010    13.6140   -36.8380 nu         1 W1I      -0.928100
      2 C7          -1.0120    12.2660   -34.8260 ca         1 W1I      -0.057900
      3 O1          -3.2290    14.1120   -37.5330 o          1 W1I      -0.549500
      4 C1          -2.1200    16.7240   -39.0280 c3         1 W1I       0.187600
      5 C5          -1.8340    13.2340   -32.7480 ca         1 W1I      -0.136000
      6 C6          -1.3200    12.1370   -33.4600 ca         1 W1I      -0.054000
      7 C4          -2.0380    14.4610   -33.4010 ca         1 W1I      -0.058000
      8 C3          -1.7310    14.5880   -34.7670 ca         1 W1I      -0.150000
      9 C2          -1.2250    13.4930   -35.4920 ca         1 W1I       0.335000
     10 Br          -0.3090    10.7380   -35.7600 br         1 W1I      -0.118100
     11 S           -1.8530    14.2770   -38.0020 s6         1 W1I       1.324200
     12 O           -1.3890    13.7150   -39.2680 o          1 W1I      -0.549500
     13 N           -1.4670    15.9410   -37.9600 n3         1 W1I      -0.775500
     14 C           -0.0290    16.2560   -37.8110 c3         1 W1I       0.187600
     15 H1          -0.6020    12.7560   -37.2760 hn         1 W1I       0.488000
     16 H2          -3.2070    16.5690   -39.0210 h1         1 W1I       0.056533
     17 H3          -1.9380    17.7980   -38.8910 h1         1 W1I       0.056533
     18 H4          -1.7390    16.4380   -40.0180 h1         1 W1I       0.056533
     19 H5          -2.0710    13.1340   -31.6910 ha         1 W1I       0.123000
     20 H6          -1.1590    11.1880   -32.9520 ha         1 W1I       0.130000
     21 H7          -2.4310    15.3130   -32.8490 ha         1 W1I       0.124000
     22 H8          -1.8820    15.5440   -35.2590 ha         1 W1I       0.140000
     23 H9           0.3820    15.8380   -36.8820 h1         1 W1I       0.056533
     24 H10          0.5520    15.8590   -38.6540 h1         1 W1I       0.056533
     25 H11          0.1290    17.3410   -37.7710 h1         1 W1I       0.056533
@<TRIPOS>BOND
     1     1     9 1   
     2     1    11 1   
     3     1    15 1   
     4     2     6 ar  
     5     2     9 ar  
     6     2    10 1   
     7     3    11 2   
     8     4    13 1   
     9     4    16 1   
    10     4    17 1   
    11     4    18 1   
    12     5     6 ar  
    13     5     7 ar  
    14     5    19 1   
    15     6    20 1   
    16     7     8 ar  
    17     7    21 1   
    18     8     9 ar  
    19     8    22 1   
    20    11    12 2   
    21    11    13 1   
    22    13    14 1   
    23    14    23 1   
    24    14    24 1   
    25    14    25 1   
@<TRIPOS>SUBSTRUCTURE
     1 W1I         1 TEMP              0 ****  ****    0 ROOT
