@<TRIPOS>MOLECULE
W1I
   25    25     1     0     0
SMALL
abcg2


@<TRIPOS>ATOM
      1 N1          -1.1150    14.5920   -36.4000 nu         1 W1I      -0.928100
      2 C7          -0.7410    12.5730   -35.1030 ca         1 W1I      -0.057900
      3 O1          -2.1650    16.8320   -36.0570 o          1 W1I      -0.549500
      4 C1          -1.5780    15.3380   -39.5500 c3         1 W1I       0.187600
      5 C5          -1.7750    12.2420   -32.9620 ca         1 W1I      -0.136000
      6 C6          -0.9330    11.7940   -33.9710 ca         1 W1I      -0.054000
      7 C4          -2.4110    13.4710   -33.0990 ca         1 W1I      -0.058000
      8 C3          -2.2100    14.2510   -34.2280 ca         1 W1I      -0.150000
      9 C2          -1.3690    13.8150   -35.2580 ca         1 W1I       0.335000
     10 BR           0.4240    11.9170   -36.4780 br         1 W1I      -0.118100
     11 S           -2.1740    15.7410   -36.9940 s6         1 W1I       1.324200
     12 O           -3.4420    15.1350   -37.3090 o          1 W1I      -0.549500
     13 N           -1.4620    16.2040   -38.3700 n3         1 W1I      -0.775500
     14 C           -0.2030    16.9560   -38.2760 c3         1 W1I       0.187600
     15 H1          -0.6470    14.0880   -37.1460 hn         1 W1I       0.488000
     16 H2          -2.5570    14.8700   -39.5730 h1         1 W1I       0.056533
     17 H3          -1.4610    15.9660   -40.4320 h1         1 W1I       0.056533
     18 H4          -0.7980    14.5700   -39.5570 h1         1 W1I       0.056533
     19 H5          -1.9280    11.6350   -32.0800 ha         1 W1I       0.123000
     20 H6          -0.4280    10.8420   -33.8860 ha         1 W1I       0.130000
     21 H7          -3.0690    13.8340   -32.3200 ha         1 W1I       0.124000
     22 H8          -2.7000    15.2100   -34.3130 ha         1 W1I       0.140000
     23 H9          -0.2200    17.5990   -37.4020 h1         1 W1I       0.056533
     24 H10          0.6560    16.2820   -38.2230 h1         1 W1I       0.056533
     25 H11         -0.1190    17.5730   -39.1700 h1         1 W1I       0.056533
@<TRIPOS>BOND
     1     1     9 1   
     2     1    11 1   
     3     1    15 1   
     4     2     6 ar  
     5     2     9 ar  
     6     2    10 1   
     7     3    11 2   
     8     4    13 1   
     9     4    16 1   
    10     4    17 1   
    11     4    18 1   
    12     5     6 ar  
    13     5     7 ar  
    14     5    19 1   
    15     6    20 1   
    16     7     8 ar  
    17     7    21 1   
    18     8     9 ar  
    19     8    22 1   
    20    11    12 2   
    21    11    13 1   
    22    13    14 1   
    23    14    23 1   
    24    14    24 1   
    25    14    25 1   
@<TRIPOS>SUBSTRUCTURE
     1 W1I         1 TEMP              0 ****  ****    0 ROOT
