@<TRIPOS>MOLECULE
W1J
   27    28     1     0     0
SMALL
No Charge or Current Charge


@<TRIPOS>ATOM
      1 N1           0.2670    11.1960    -7.4960 nc         1 W1J      -0.163800
      2 N3           1.9900    10.6820   -10.4620 ns         1 W1J      -0.467400
      3 C4           2.5770     9.7040   -11.2380 c          1 W1J       0.546600
      4 C5           3.1890    10.2180   -12.4990 cc         1 W1J       0.052500
      5 C6           3.2310    11.5150   -12.9560 cd         1 W1J      -0.133000
      6 C7           3.9150    11.4890   -14.1890 cd         1 W1J      -0.201000
      7 C8           4.2640    10.1890   -14.4380 cc         1 W1J       0.150900
      8 O            2.5970     8.5210   -10.9280 o          1 W1J      -0.518100
      9 O1           3.8230     9.3910   -13.4050 os         1 W1J      -0.189000
     10 N4           1.1720     9.4340    -8.6110 nc         1 W1J      -0.520800
     11 C3           1.3480    10.5630    -9.2650 cd         1 W1J       0.619900
     12 N2           0.8040    11.6350    -8.5960 nd         1 W1J      -0.431000
     13 N            0.4940     9.8590    -7.5180 na         1 W1J       0.247600
     14 C2           0.0480     8.9530    -6.4450 c3         1 W1J       0.093600
     15 C1          -1.1840     8.0910    -6.8160 c3         1 W1J      -0.094400
     16 C           -2.4650     8.9100    -7.0890 c3         1 W1J      -0.093100
     17 H1           2.0460    11.6140   -10.8390 hn         1 W1J       0.346500
     18 H2           2.8220    12.3980   -12.4740 ha         1 W1J       0.143000
     19 H3           4.1310    12.3380   -14.8300 ha         1 W1J       0.149000
     20 H4           4.7920     9.7190   -15.2570 h4         1 W1J       0.061100
     21 H5           0.8850     8.2920    -6.1930 h1         1 W1J       0.076700
     22 H6          -0.1800     9.5500    -5.5530 h1         1 W1J       0.076700
     23 H7          -1.3820     7.3920    -5.9930 hc         1 W1J       0.062700
     24 H8          -0.9480     7.4810    -7.6960 hc         1 W1J       0.062700
     25 H9          -3.3080     8.2400    -7.2990 hc         1 W1J       0.040367
     26 H10         -2.7250     9.5260    -6.2210 hc         1 W1J       0.040367
     27 H11         -2.3320     9.5690    -7.9560 hc         1 W1J       0.040367
@<TRIPOS>BOND
     1     1    12 2   
     2     1    13 1   
     3     2     3 1   
     4     2    11 1   
     5     2    17 1   
     6     3     4 1   
     7     3     8 2   
     8     4     5 2   
     9     4     9 1   
    10     5     6 1   
    11     5    18 1   
    12     6     7 2   
    13     6    19 1   
    14     7     9 1   
    15     7    20 1   
    16    10    11 2   
    17    10    13 1   
    18    11    12 1   
    19    13    14 1   
    20    14    15 1   
    21    14    21 1   
    22    14    22 1   
    23    15    16 1   
    24    15    23 1   
    25    15    24 1   
    26    16    25 1   
    27    16    26 1   
    28    16    27 1   
@<TRIPOS>SUBSTRUCTURE
     1 W1J         1 TEMP              0 ****  ****    0 ROOT
