@<TRIPOS>MOLECULE
W1J
   27    28     1     0     0
SMALL
abcg2


@<TRIPOS>ATOM
      1 N1           0.3630    11.1960    -7.3530 nc         1 W1J      -0.163800
      2 N3           1.9550    10.8350   -10.3420 ns         1 W1J      -0.467400
      3 C4           2.3860     9.8450   -11.1810 c          1 W1J       0.546600
      4 C5           3.0110    10.3370   -12.4120 cc         1 W1J       0.052500
      5 C6           3.3170    11.5700   -12.9020 cd         1 W1J      -0.133000
      6 C7           3.9310    11.3520   -14.1630 cd         1 W1J      -0.201000
      7 C8           3.9500    10.0060   -14.3370 cc         1 W1J       0.150900
      8 O            2.2680     8.6620   -10.9410 o          1 W1J      -0.518100
      9 O1           3.3990     9.3870   -13.2870 os         1 W1J      -0.189000
     10 N4           1.1370     9.5050    -8.5090 nc         1 W1J      -0.520800
     11 C3           1.3390    10.6480    -9.1310 cd         1 W1J       0.619900
     12 N2           0.8720    11.6950    -8.4350 nd         1 W1J      -0.431000
     13 N            0.5300     9.9140    -7.4150 na         1 W1J       0.247600
     14 C2           0.0530     8.9910    -6.4000 c3         1 W1J       0.093600
     15 C1          -1.0320     8.0700    -6.9360 c3         1 W1J      -0.094400
     16 C           -2.2780     8.8070    -7.4050 c3         1 W1J      -0.093100
     17 H1           2.0460    11.8000   -10.6220 hn         1 W1J       0.346500
     18 H2           3.1380    12.5270   -12.4370 ha         1 W1J       0.143000
     19 H3           4.3060    12.0960   -14.8470 ha         1 W1J       0.149000
     20 H4           4.3110     9.3780   -15.1360 h4         1 W1J       0.061100
     21 H5           0.9100     8.4230    -6.0410 h1         1 W1J       0.076700
     22 H6          -0.3160     9.6060    -5.5810 h1         1 W1J       0.076700
     23 H7          -1.2860     7.3840    -6.1260 hc         1 W1J       0.062700
     24 H8          -0.6230     7.4580    -7.7410 hc         1 W1J       0.062700
     25 H9          -3.0320     8.1000    -7.7500 hc         1 W1J       0.040367
     26 H10         -2.7190     9.3940    -6.5990 hc         1 W1J       0.040367
     27 H11         -2.0670     9.4830    -8.2340 hc         1 W1J       0.040367
@<TRIPOS>BOND
     1     1    12 2   
     2     1    13 1   
     3     2     3 1   
     4     2    11 1   
     5     2    17 1   
     6     3     4 1   
     7     3     8 2   
     8     4     5 2   
     9     4     9 1   
    10     5     6 1   
    11     5    18 1   
    12     6     7 2   
    13     6    19 1   
    14     7     9 1   
    15     7    20 1   
    16    10    11 2   
    17    10    13 1   
    18    11    12 1   
    19    13    14 1   
    20    14    15 1   
    21    14    21 1   
    22    14    22 1   
    23    15    16 1   
    24    15    23 1   
    25    15    24 1   
    26    16    25 1   
    27    16    26 1   
    28    16    27 1   
@<TRIPOS>SUBSTRUCTURE
     1 W1J         1 TEMP              0 ****  ****    0 ROOT
