@<TRIPOS>MOLECULE
W1M
   28    29     1     0     0
SMALL
No Charge or Current Charge


@<TRIPOS>ATOM
      1 N1           3.4250     8.9490   -13.3670 nc         1 W1M      -0.468800
      2 C4           1.9850     9.0080   -11.3330 c          1 W1M       0.532600
      3 C5           0.8070     9.7640    -9.1630 ca         1 W1M      -0.071000
      4 C6           0.0230     8.6230    -8.8900 ca         1 W1M      -0.150000
      5 C7          -0.8090     8.5930    -7.7610 ca         1 W1M      -0.130000
      6 C8          -0.8700     9.6940    -6.8920 ca         1 W1M      -0.101000
      7 C10          0.7400    10.8650    -8.2850 ca         1 W1M      -0.134000
      8 O2           0.5280    13.0290    -6.4500 o          1 W1M      -0.720500
      9 O1          -0.8940    11.9880    -5.2240 o          1 W1M      -0.720500
     10 C9          -0.0950    10.8500    -7.1410 ca         1 W1M      -0.117600
     11 N2           1.6760     9.8750   -10.2860 ns         1 W1M      -0.129000
     12 O            1.4980     7.8850   -11.4610 o          1 W1M      -0.581100
     13 C3           2.9860     9.6010   -12.2940 cd         1 W1M       0.191500
     14 C2           3.5870    10.8860   -12.2080 cd         1 W1M      -0.196000
     15 C1           4.4310    11.0340   -13.2700 cc         1 W1M      -0.194000
     16 N            4.3060     9.8330   -13.9550 na         1 W1M       0.132800
     17 C            5.0060     9.4590   -15.1910 c3         1 W1M       0.069900
     18 H1           0.0420     7.7520    -9.5370 ha         1 W1M       0.121000
     19 H2          -1.4110     7.7100    -7.5560 ha         1 W1M       0.087000
     20 H3          -1.5230     9.6450    -6.0230 ha         1 W1M       0.128000
     21 H4           1.3450    11.7440    -8.4960 ha         1 W1M       0.123000
     22 H6           2.1640    10.7600   -10.3300 hn         1 W1M       0.148000
     23 H7           3.4150    11.6320   -11.4380 ha         1 W1M       0.151000
     24 H8           5.0770    11.8450   -13.5840 h4         1 W1M       0.149000
     25 H9           5.6120     8.5620   -15.0120 h1         1 W1M       0.054700
     26 H10          4.2730     9.2530   -15.9790 h1         1 W1M       0.054700
     27 H11          5.6600    10.2800   -15.5100 h1         1 W1M       0.054700
     28 C11         -0.1590    12.0470    -6.2000 c          1 W1M       0.714600
@<TRIPOS>BOND
     1     1    13 2   
     2     1    16 1   
     3     2    11 1   
     4     2    12 2   
     5     2    13 1   
     6     3     4 ar  
     7     3     7 ar  
     8     3    11 1   
     9     4     5 ar  
    10     4    18 1   
    11     5     6 ar  
    12     5    19 1   
    13     6    10 ar  
    14     6    20 1   
    15     7    10 ar  
    16     7    21 1   
    17     8    28 1   
    18     9    28 1   
    19    10    28 1   
    20    11    22 1   
    21    13    14 1   
    22    14    15 2   
    23    14    23 1   
    24    15    16 1   
    25    15    24 1   
    26    16    17 1   
    27    17    25 1   
    28    17    26 1   
    29    17    27 1   
@<TRIPOS>SUBSTRUCTURE
     1 W1M         1 TEMP              0 ****  ****    0 ROOT
