@<TRIPOS>MOLECULE
W1M
   28    29     1     0     0
SMALL
abcg2


@<TRIPOS>ATOM
      1 N1           3.5670     9.0040   -13.1070 nc         1 W1M      -0.468800
      2 C4           2.0060     9.2290   -11.2790 c          1 W1M       0.532600
      3 C5           0.7880     9.8610    -9.2040 ca         1 W1M      -0.071000
      4 C6           0.0190     8.7110    -9.0240 ca         1 W1M      -0.150000
      5 C7          -0.7540     8.5890    -7.8760 ca         1 W1M      -0.130000
      6 C8          -0.7780     9.5830    -6.9110 ca         1 W1M      -0.101000
      7 C10          0.7510    10.8630    -8.2330 ca         1 W1M      -0.134000
      8 O2           0.6430    12.8690    -6.3030 o          1 W1M      -0.720500
      9 O1          -0.7040    11.6410    -5.0160 o          1 W1M      -0.720500
     10 C9          -0.0210    10.7390    -7.0870 ca         1 W1M      -0.117600
     11 N2           1.6040    10.0980   -10.3180 ns         1 W1M      -0.129000
     12 O            1.6680     8.0600   -11.3360 o          1 W1M      -0.581100
     13 C3           2.9200     9.8200   -12.2850 cd         1 W1M       0.191500
     14 C2           3.2500    11.1630   -12.5500 cd         1 W1M      -0.196000
     15 C1           4.1420    11.0910   -13.5900 cc         1 W1M      -0.194000
     16 N            4.2960     9.7830   -13.8790 na         1 W1M       0.132800
     17 C            5.1550     9.2190   -14.8970 c3         1 W1M       0.069900
     18 H1           0.0130     7.9200    -9.7550 ha         1 W1M       0.121000
     19 H2          -1.3480     7.6940    -7.7420 ha         1 W1M       0.087000
     20 H3          -1.3830     9.4670    -6.0230 ha         1 W1M       0.128000
     21 H4           1.3420    11.7620    -8.3690 ha         1 W1M       0.123000
     22 H6           2.0180    11.0170   -10.3360 hn         1 W1M       0.148000
     23 H7           2.8870    12.0620   -12.0790 ha         1 W1M       0.151000
     24 H8           4.6640    11.8600   -14.1360 h4         1 W1M       0.149000
     25 H9           5.0260     8.1420   -14.8960 h1         1 W1M       0.054700
     26 H10          4.8890     9.6110   -15.8760 h1         1 W1M       0.054700
     27 H11          6.1970     9.4550   -14.6890 h1         1 W1M       0.054700
     28 C11         -0.0280    11.8530    -6.0400 c          1 W1M       0.714600
@<TRIPOS>BOND
     1     1    13 2   
     2     1    16 1   
     3     2    11 1   
     4     2    12 2   
     5     2    13 1   
     6     3     4 ar  
     7     3     7 ar  
     8     3    11 1   
     9     4     5 ar  
    10     4    18 1   
    11     5     6 ar  
    12     5    19 1   
    13     6    10 ar  
    14     6    20 1   
    15     7    10 ar  
    16     7    21 1   
    17     8    28 1   
    18     9    28 1   
    19    10    28 1   
    20    11    22 1   
    21    13    14 1   
    22    14    15 2   
    23    14    23 1   
    24    15    16 1   
    25    15    24 1   
    26    16    17 1   
    27    17    25 1   
    28    17    26 1   
    29    17    27 1   
@<TRIPOS>SUBSTRUCTURE
     1 W1M         1 TEMP              0 ****  ****    0 ROOT
