@<TRIPOS>MOLECULE
W1N
   25    25     1     0     0
SMALL
abcg2


@<TRIPOS>ATOM
      1 C7          27.6420    16.5170    41.6460 c3         1 W1N       0.179500
      2 C8          28.7790    15.5760    42.0420 c3         1 W1N      -0.241400
      3 C9          28.4640    14.5800    43.1770 c          1 W1N       0.707000
      4 O1          27.3320    14.6340    43.7270 o          1 W1N      -0.741500
      5 C1          28.6180    14.9600    36.8620 ca         1 W1N      -0.104000
      6 C5          27.1360    16.0120    38.4430 ca         1 W1N      -0.087000
      7 C6          27.9850    17.3580    40.4060 c3         1 W1N      -0.038100
      8 C4          28.2110    16.5370    39.1660 ca         1 W1N      -0.077300
      9 C3          29.4790    16.2350    38.6850 ca         1 W1N       0.167000
     10 C2          29.7090    15.4690    37.5570 ca         1 W1N      -0.153000
     11 F           30.5650    16.7150    39.3530 f          1 W1N      -0.186000
     12 C           27.3280    15.2330    37.3090 ca         1 W1N      -0.131000
     13 N           27.2370    17.4300    42.7290 n8         1 W1N      -1.013200
     14 O           29.3860    13.7750    43.4710 o          1 W1N      -0.741500
     15 H1          26.7650    15.9090    41.4050 h1         1 W1N       0.064700
     16 H2          29.1080    14.9860    41.1820 hc         1 W1N       0.029700
     17 H3          29.6450    16.1710    42.3520 hc         1 W1N       0.029700
     18 H7          28.8650    17.9680    40.6220 hc         1 W1N       0.045200
     19 H8          27.1510    18.0400    40.2280 hc         1 W1N       0.045200
     20 H9          30.7260    15.2790    37.2380 ha         1 W1N       0.120000
     21 H10         26.4730    14.8430    36.7720 ha         1 W1N       0.105000
     22 H11         27.0770    16.8500    43.5490 hn         1 W1N       0.400000
     23 H12         28.0230    18.0350    42.9580 hn         1 W1N       0.400000
     24 H5          28.7770    14.3580    35.9780 ha         1 W1N       0.103000
     25 H6          26.1310    16.2270    38.7860 ha         1 W1N       0.118000
@<TRIPOS>BOND
     1     1     2 1   
     2     1     7 1   
     3     1    13 1   
     4     1    15 1   
     5     2     3 1   
     6     2    16 1   
     7     2    17 1   
     8     3     4 1   
     9     3    14 1   
    10     5    10 ar  
    11     5    12 ar  
    12     5    24 1   
    13     6     8 ar  
    14     6    12 ar  
    15     6    25 1   
    16     7     8 1   
    17     7    18 1   
    18     7    19 1   
    19     8     9 ar  
    20     9    10 ar  
    21     9    11 1   
    22    10    20 1   
    23    12    21 1   
    24    13    22 1   
    25    13    23 1   
@<TRIPOS>SUBSTRUCTURE
     1 W1N         1 TEMP              0 ****  ****    0 ROOT
