@<TRIPOS>MOLECULE
W1N
   25    25     1     0     0
SMALL
No Charge or Current Charge


@<TRIPOS>ATOM
      1 C7          27.6330    16.4900    41.6450 c3         1 W1N       0.179500
      2 C8          28.8310    15.6610    42.1580 c3         1 W1N      -0.241400
      3 C9          28.3520    14.6080    43.1650 c          1 W1N       0.707000
      4 O1          28.3050    14.9180    44.3450 o          1 W1N      -0.741500
      5 C1          28.7060    14.9320    36.8360 ca         1 W1N      -0.104000
      6 C5          27.1710    15.8660    38.4820 ca         1 W1N      -0.087000
      7 C6          27.9610    17.3420    40.3900 c3         1 W1N      -0.038100
      8 C4          28.2420    16.5010    39.1430 ca         1 W1N      -0.077300
      9 C3          29.5500    16.3410    38.6330 ca         1 W1N       0.167000
     10 C2          29.7800    15.5610    37.4880 ca         1 W1N      -0.153000
     11 F           30.6050    16.9320    39.2420 f          1 W1N      -0.186000
     12 C           27.4020    15.0860    37.3350 ca         1 W1N      -0.131000
     13 N           27.1430    17.3570    42.7290 n8         1 W1N      -1.013200
     14 O           27.9930    13.5230    42.7360 o          1 W1N      -0.741500
     15 H1          26.8240    15.7910    41.3790 h1         1 W1N       0.064700
     16 H2          29.2500    15.1540    41.2820 hc         1 W1N       0.029700
     17 H3          29.5300    16.3650    42.6270 hc         1 W1N       0.029700
     18 H7          28.8020    18.0090    40.6140 hc         1 W1N       0.045200
     19 H8          27.1100    18.0020    40.1800 hc         1 W1N       0.045200
     20 H9          30.7920    15.4460    37.1070 ha         1 W1N       0.120000
     21 H10         26.5690    14.6000    36.8320 ha         1 W1N       0.105000
     22 H11         27.1860    16.8110    43.5990 hn         1 W1N       0.400000
     23 H12         27.8350    18.0960    42.8900 hn         1 W1N       0.400000
     24 H5          28.8840    14.3280    35.9490 ha         1 W1N       0.103000
     25 H6          26.1550    15.9770    38.8570 ha         1 W1N       0.118000
@<TRIPOS>BOND
     1     1     2 1   
     2     1     7 1   
     3     1    13 1   
     4     1    15 1   
     5     2     3 1   
     6     2    16 1   
     7     2    17 1   
     8     3     4 1   
     9     3    14 1   
    10     5    10 ar  
    11     5    12 ar  
    12     5    24 1   
    13     6     8 ar  
    14     6    12 ar  
    15     6    25 1   
    16     7     8 1   
    17     7    18 1   
    18     7    19 1   
    19     8     9 ar  
    20     9    10 ar  
    21     9    11 1   
    22    10    20 1   
    23    12    21 1   
    24    13    22 1   
    25    13    23 1   
@<TRIPOS>SUBSTRUCTURE
     1 W1N         1 TEMP              0 ****  ****    0 ROOT
