@<TRIPOS>MOLECULE
W1O
   63    67     1     0     0
SMALL
abcg2


@<TRIPOS>ATOM
      1 C4           3.6190     4.1180     3.5510 cc         1 W1O      -0.288400
      2 C7           1.6600     4.2820     5.5880 ca         1 W1O       0.340000
      3 C14         -2.9940     4.8010    11.7700 c          1 W1O       0.651100
      4 C16         -3.6710     5.6070    13.9570 c3         1 W1O       0.160300
      5 C17         -4.2730     4.3980    14.6330 ca         1 W1O      -0.032300
      6 C18         -5.5900     4.4410    15.0740 ca         1 W1O      -0.121500
      7 C20         -5.3750     2.2500    16.0040 ca         1 W1O      -0.274500
      8 O1           4.2400     4.8470     1.3970 o          1 W1O      -0.709500
      9 C2           4.5270     4.0610     2.3240 c          1 W1O       0.729200
     10 O3           5.4410     3.2200     2.3320 o          1 W1O      -0.709500
     11 C5           2.3660     4.6180     3.3630 cd         1 W1O       0.012000
     12 N6           1.3920     4.6810     4.2950 na         1 W1O      -0.631200
     13 C8           0.6930     4.4070     6.5960 ca         1 W1O      -0.217000
     14 C9           0.9490     3.9990     7.8950 ca         1 W1O       0.267000
     15 N10         -0.0010     4.0510     8.9090 nh         1 W1O      -0.774400
     16 C11          0.2960     4.9220    10.0390 c6         1 W1O       0.183300
     17 C12         -0.5760     4.5750    11.2300 c6         1 W1O       0.093500
     18 N13         -1.9810     4.5980    10.8660 n          1 W1O      -0.407800
     19 N15         -2.6560     5.3070    12.9850 ns         1 W1O      -0.531900
     20 C19         -6.1490     3.3740    15.7620 ca         1 W1O      -0.008000
     21 S21         -6.0540     0.8920    16.9110 sy         1 W1O       1.126600
     22 O22         -5.0740     0.4010    17.8690 o          1 W1O      -0.550500
     23 N23         -6.1490    -0.2660    15.7340 n8         1 W1O      -1.001100
     24 O24         -7.3610     1.3000    17.4090 o          1 W1O      -0.550500
     25 C25         -4.0580     2.1810    15.5650 ca         1 W1O      -0.008000
     26 C26         -3.5160     3.2550    14.8810 ca         1 W1O      -0.121500
     27 O27         -4.1650     4.5640    11.4970 o          1 W1O      -0.641100
     28 C28         -2.2870     3.8100     9.6850 c6         1 W1O       0.093500
     29 C29         -1.3910     4.1900     8.5230 c6         1 W1O       0.183300
     30 C30          2.2230     3.4610     8.1580 ca         1 W1O       0.076000
     31 F31          2.4800     3.0060     9.3970 f          1 W1O      -0.195000
     32 C32          3.1890     3.3680     7.2020 ca         1 W1O      -0.051000
     33 C33          2.9310     3.7800     5.8870 ca         1 W1O      -0.209600
     34 C34          3.9960     3.6650     4.8740 c          1 W1O       0.594900
     35 O35          5.1050     3.2460     5.2000 o          1 W1O      -0.543100
     36 C36          0.1080     5.2350     3.9560 cx         1 W1O       0.165500
     37 C37         -1.0960     4.3460     3.9460 cx         1 W1O      -0.136900
     38 C38         -0.5350     4.8630     2.6610 cx         1 W1O      -0.136900
     39 H1          -3.2040     6.2310    14.7220 h1         1 W1O       0.059200
     40 H2          -4.4670     6.2100    13.5150 h1         1 W1O       0.059200
     41 H3          -6.1950     5.3180    14.8790 ha         1 W1O       0.119000
     42 H5           2.0880     4.9960     2.3890 h4         1 W1O       0.223000
     43 H6          -0.2670     4.8410     6.3630 ha         1 W1O       0.114000
     44 H7           1.3350     4.8270    10.3430 h1         1 W1O       0.049200
     45 H8           0.1310     5.9730     9.7630 h1         1 W1O       0.049200
     46 H9          -0.2910     3.5920    11.6250 h1         1 W1O       0.050700
     47 H10         -0.3520     5.3170    11.9940 h1         1 W1O       0.050700
     48 H11         -1.7050     5.5020    13.2380 hn         1 W1O       0.319500
     49 H12         -7.1760     3.4270    16.0970 ha         1 W1O       0.134500
     50 H13         -6.2230    -1.1980    16.1310 hn         1 W1O       0.472500
     51 H14         -6.9070    -0.1000    15.0800 hn         1 W1O       0.472500
     52 H15         -3.4540     1.3020    15.7510 ha         1 W1O       0.134500
     53 H16         -2.4900     3.1990    14.5380 ha         1 W1O       0.119000
     54 H17         -3.3210     3.9750     9.3950 h1         1 W1O       0.050700
     55 H18         -2.1670     2.7400     9.8950 h1         1 W1O       0.050700
     56 H19         -1.6250     5.2130     8.1940 h1         1 W1O       0.049200
     57 H20         -1.6090     3.5160     7.6940 h1         1 W1O       0.049200
     58 H21          4.1550     2.9500     7.4500 ha         1 W1O       0.151000
     59 H22         -0.0310     6.2540     4.3040 h1         1 W1O       0.080700
     60 H23         -2.0230     4.7560     4.3240 hc         1 W1O       0.079700
     61 H24         -0.9420     3.2970     4.1680 hc         1 W1O       0.079700
     62 H25         -0.0330     4.1540     2.0170 hc         1 W1O       0.079700
     63 H26         -1.0630     5.6460     2.1350 hc         1 W1O       0.079700
@<TRIPOS>BOND
     1     1     9 1   
     2     1    11 2   
     3     1    34 1   
     4     2    12 1   
     5     2    13 ar  
     6     2    33 ar  
     7     3    18 1   
     8     3    19 1   
     9     3    27 2   
    10     4     5 1   
    11     4    19 1   
    12     4    39 1   
    13     4    40 1   
    14     5     6 ar  
    15     5    26 ar  
    16     6    20 ar  
    17     6    41 1   
    18     7    20 ar  
    19     7    21 1   
    20     7    25 ar  
    21     8     9 1   
    22     9    10 1   
    23    11    12 1   
    24    11    42 1   
    25    12    36 1   
    26    13    14 ar  
    27    13    43 1   
    28    14    15 1   
    29    14    30 ar  
    30    15    16 1   
    31    15    29 1   
    32    16    17 1   
    33    16    44 1   
    34    16    45 1   
    35    17    18 1   
    36    17    46 1   
    37    17    47 1   
    38    18    28 1   
    39    19    48 1   
    40    20    49 1   
    41    21    22 2   
    42    21    23 1   
    43    21    24 2   
    44    23    50 1   
    45    23    51 1   
    46    25    26 ar  
    47    25    52 1   
    48    26    53 1   
    49    28    29 1   
    50    28    54 1   
    51    28    55 1   
    52    29    56 1   
    53    29    57 1   
    54    30    31 1   
    55    30    32 ar  
    56    32    33 ar  
    57    32    58 1   
    58    33    34 1   
    59    34    35 2   
    60    36    37 1   
    61    36    38 1   
    62    36    59 1   
    63    37    38 1   
    64    37    60 1   
    65    37    61 1   
    66    38    62 1   
    67    38    63 1   
@<TRIPOS>SUBSTRUCTURE
     1 W1O         1 TEMP              0 ****  ****    0 ROOT
