@<TRIPOS>MOLECULE
W1O
   63    67     1     0     0
SMALL
No Charge or Current Charge


@<TRIPOS>ATOM
      1 C4           3.5730     3.3460     3.8430 cc         1 W1O      -0.288400
      2 C7           1.5190     4.0150     5.5940 ca         1 W1O       0.340000
      3 C14         -3.4630     5.5040    11.7330 c          1 W1O       0.651100
      4 C16         -3.9130     5.7590    14.1930 c3         1 W1O       0.160300
      5 C17         -4.2460     4.4210    14.8390 ca         1 W1O      -0.032300
      6 C18         -5.3530     3.6740    14.3950 ca         1 W1O      -0.121500
      7 C20         -4.8610     1.9350    16.0320 ca         1 W1O      -0.274500
      8 O1           4.8840     3.8650     1.9900 o          1 W1O      -0.709500
      9 C2           4.7330     3.1120     2.9410 c          1 W1O       0.729200
     10 O3           5.5280     2.2120     3.1610 o          1 W1O      -0.709500
     11 C5           2.7410     4.4220     3.5480 cd         1 W1O       0.012000
     12 N6           1.5660     4.5880     4.3110 na         1 W1O      -0.631200
     13 C8           0.6040     4.5240     6.5380 ca         1 W1O      -0.217000
     14 C9           0.4580     3.9410     7.8100 ca         1 W1O       0.267000
     15 N10         -0.4760     4.4770     8.7360 nh         1 W1O      -0.774400
     16 C11          0.0020     5.0920     9.9970 c6         1 W1O       0.183300
     17 C12         -1.0480     4.9690    11.1370 c6         1 W1O       0.093500
     18 N13         -2.4620     5.3100    10.7620 n          1 W1O      -0.407800
     19 N15         -3.0340     5.5950    13.0340 ns         1 W1O      -0.531900
     20 C19         -5.6620     2.4370    14.9860 ca         1 W1O      -0.008000
     21 S21         -5.2530     0.3550    16.7910 sy         1 W1O       1.126600
     22 O22         -4.6380     0.2410    18.1120 o          1 W1O      -0.550500
     23 N23         -4.4120    -0.7080    15.8870 n8         1 W1O      -1.001100
     24 O24         -6.6450    -0.0140    16.5450 o          1 W1O      -0.550500
     25 C25         -3.7480     2.6780    16.4760 ca         1 W1O      -0.008000
     26 C26         -3.4450     3.9140    15.8800 ca         1 W1O      -0.121500
     27 O27         -4.6450     5.5920    11.4390 o          1 W1O      -0.641100
     28 C28         -2.8610     4.9700     9.3580 c6         1 W1O       0.093500
     29 C29         -1.7470     5.0960     8.2830 c6         1 W1O       0.183300
     30 C30          1.2570     2.8200     8.1370 ca         1 W1O       0.076000
     31 F31          1.1470     2.2100     9.3430 f          1 W1O      -0.195000
     32 C32          2.1760     2.3150     7.2090 ca         1 W1O      -0.051000
     33 C33          2.3120     2.9210     5.9410 ca         1 W1O      -0.209600
     34 C34          3.3160     2.4330     4.9700 c          1 W1O       0.594900
     35 O35          3.8840     1.3650     5.1670 o          1 W1O      -0.543100
     36 C36          0.5620     5.5040     3.7440 cx         1 W1O       0.165500
     37 C37         -0.8980     5.1700     3.5570 cx         1 W1O      -0.136900
     38 C38         -0.0190     5.3960     2.3550 cx         1 W1O      -0.136900
     39 H1          -3.4080     6.4040    14.9250 h1         1 W1O       0.059200
     40 H2          -4.8380     6.2690    13.8930 h1         1 W1O       0.059200
     41 H3          -5.9750     4.0520    13.5870 ha         1 W1O       0.119000
     42 H5           2.8860     5.0840     2.6930 h4         1 W1O       0.223000
     43 H6           0.0010     5.3880     6.2880 ha         1 W1O       0.114000
     44 H7           0.9410     4.6280    10.3310 h1         1 W1O       0.049200
     45 H8           0.2140     6.1580     9.8270 h1         1 W1O       0.049200
     46 H9          -1.0360     3.9340    11.5060 h1         1 W1O       0.050700
     47 H10         -0.7130     5.6130    11.9610 h1         1 W1O       0.050700
     48 H11         -2.0410     5.5100    13.1940 hn         1 W1O       0.319500
     49 H12         -6.5220     1.8730    14.6270 ha         1 W1O       0.134500
     50 H13         -3.9100    -1.2100    16.6150 hn         1 W1O       0.472500
     51 H14         -5.1500    -1.3650    15.6450 hn         1 W1O       0.472500
     52 H15         -3.1160     2.3010    17.2790 ha         1 W1O       0.134500
     53 H16         -2.5830     4.4790    16.2290 ha         1 W1O       0.119000
     54 H17         -3.7050     5.6030     9.0510 h1         1 W1O       0.050700
     55 H18         -3.2240     3.9320     9.3550 h1         1 W1O       0.050700
     56 H19         -1.5840     6.1620     8.0650 h1         1 W1O       0.049200
     57 H20         -2.1010     4.6210     7.3560 h1         1 W1O       0.049200
     58 H21          2.7890     1.4600     7.4860 ha         1 W1O       0.151000
     59 H22          0.8010     6.5060     4.1070 h1         1 W1O       0.080700
     60 H23         -1.6240     5.9370     3.8120 hc         1 W1O       0.079700
     61 H24         -1.2130     4.1520     3.7710 hc         1 W1O       0.079700
     62 H25          0.2530     4.5300     1.7580 hc         1 W1O       0.079700
     63 H26         -0.1490     6.3170     1.7930 hc         1 W1O       0.079700
@<TRIPOS>BOND
     1     1     9 1   
     2     1    11 2   
     3     1    34 1   
     4     2    12 1   
     5     2    13 ar  
     6     2    33 ar  
     7     3    18 1   
     8     3    19 1   
     9     3    27 2   
    10     4     5 1   
    11     4    19 1   
    12     4    39 1   
    13     4    40 1   
    14     5     6 ar  
    15     5    26 ar  
    16     6    20 ar  
    17     6    41 1   
    18     7    20 ar  
    19     7    21 1   
    20     7    25 ar  
    21     8     9 1   
    22     9    10 1   
    23    11    12 1   
    24    11    42 1   
    25    12    36 1   
    26    13    14 ar  
    27    13    43 1   
    28    14    15 1   
    29    14    30 ar  
    30    15    16 1   
    31    15    29 1   
    32    16    17 1   
    33    16    44 1   
    34    16    45 1   
    35    17    18 1   
    36    17    46 1   
    37    17    47 1   
    38    18    28 1   
    39    19    48 1   
    40    20    49 1   
    41    21    22 2   
    42    21    23 1   
    43    21    24 2   
    44    23    50 1   
    45    23    51 1   
    46    25    26 ar  
    47    25    52 1   
    48    26    53 1   
    49    28    29 1   
    50    28    54 1   
    51    28    55 1   
    52    29    56 1   
    53    29    57 1   
    54    30    31 1   
    55    30    32 ar  
    56    32    33 ar  
    57    32    58 1   
    58    33    34 1   
    59    34    35 2   
    60    36    37 1   
    61    36    38 1   
    62    36    59 1   
    63    37    38 1   
    64    37    60 1   
    65    37    61 1   
    66    38    62 1   
    67    38    63 1   
@<TRIPOS>SUBSTRUCTURE
     1 W1O         1 TEMP              0 ****  ****    0 ROOT
