@<TRIPOS>MOLECULE
W1P
   23    24     1     0     0
SMALL
abcg2


@<TRIPOS>ATOM
      1 N1          38.5380    40.2530    -3.1470 n          1 W1P      -0.010400
      2 C4          38.2070    39.7740    -1.8690 ca         1 W1P      -0.015000
      3 C5          37.4020    40.5190    -1.0090 ca         1 W1P      -0.119500
      4 C6          37.0960    40.0220     0.2500 ca         1 W1P      -0.097500
      5 C7          37.5750    38.7860     0.6630 ca         1 W1P      -0.123000
      6 C8          38.3660    38.0430    -0.2030 ca         1 W1P      -0.097500
      7 C2          38.7300    41.5530    -3.5410 c          1 W1P       0.555000
      8 C3          39.1660    41.4520    -4.9800 c5         1 W1P      -0.256700
      9 C1          39.1840    39.9790    -5.1880 c2         1 W1P       0.328300
     10 C           39.5550    39.3040    -6.4530 c3         1 W1P      -0.115400
     11 N           38.8330    39.3400    -4.1410 n2         1 W1P      -0.417300
     12 C9          38.6870    38.5300    -1.4600 ca         1 W1P      -0.119500
     13 H1          36.9980    41.4730    -1.3120 ha         1 W1P       0.131500
     14 H2          36.4660    40.6070     0.9060 ha         1 W1P       0.114000
     15 H3          37.3300    38.4050     1.6450 ha         1 W1P       0.114000
     16 H4          38.7460    37.0760     0.1010 ha         1 W1P       0.114000
     17 H5          40.1440    41.9140    -5.1350 hc         1 W1P       0.104700
     18 H6          38.4640    41.9650    -5.6430 hc         1 W1P       0.104700
     19 H7          39.4770    38.2230    -6.3590 hc         1 W1P       0.058033
     20 H8          38.9070    39.6350    -7.2660 hc         1 W1P       0.058033
     21 H9          40.5780    39.5600    -6.7350 hc         1 W1P       0.058033
     22 H10         39.3070    37.9450    -2.1240 ha         1 W1P       0.131500
     23 O           38.5830    42.5450    -2.8610 o          1 W1P      -0.502000
@<TRIPOS>BOND
     1     1     2 1   
     2     1     7 1   
     3     1    11 1   
     4     2     3 ar  
     5     2    12 ar  
     6     3     4 ar  
     7     3    13 1   
     8     4     5 ar  
     9     4    14 1   
    10     5     6 ar  
    11     5    15 1   
    12     6    12 ar  
    13     6    16 1   
    14     7     8 1   
    15     7    23 2   
    16     8     9 1   
    17     8    17 1   
    18     8    18 1   
    19     9    10 1   
    20     9    11 2   
    21    10    19 1   
    22    10    20 1   
    23    10    21 1   
    24    12    22 1   
@<TRIPOS>SUBSTRUCTURE
     1 W1P         1 TEMP              0 ****  ****    0 ROOT
