@<TRIPOS>MOLECULE
W1P
   23    24     1     0     0
SMALL
No Charge or Current Charge


@<TRIPOS>ATOM
      1 N1          38.6580    40.1640    -3.1620 n          1 W1P      -0.010400
      2 C4          38.2660    39.7190    -1.8480 ca         1 W1P      -0.015000
      3 C5          37.3540    40.4610    -1.0660 ca         1 W1P      -0.119500
      4 C6          36.9750    40.0090     0.2100 ca         1 W1P      -0.097500
      5 C7          37.5010    38.8090     0.7160 ca         1 W1P      -0.123000
      6 C8          38.4020    38.0580    -0.0560 ca         1 W1P      -0.097500
      7 C2          38.8770    41.5190    -3.5180 c          1 W1P       0.555000
      8 C3          39.2070    41.4540    -4.9920 c5         1 W1P      -0.256700
      9 C1          39.1720    39.9740    -5.2180 c2         1 W1P       0.328300
     10 C           39.4720    39.3820    -6.5730 c3         1 W1P      -0.115400
     11 N           38.8490    39.2670    -4.1960 n2         1 W1P      -0.417300
     12 C9          38.7800    38.5100    -1.3330 ca         1 W1P      -0.119500
     13 H1          36.9240    41.3850    -1.4470 ha         1 W1P       0.131500
     14 H2          36.2720    40.5870     0.8050 ha         1 W1P       0.114000
     15 H3          37.2070    38.4590     1.7040 ha         1 W1P       0.114000
     16 H4          38.8070    37.1270     0.3340 ha         1 W1P       0.114000
     17 H5          40.1780    41.9200    -5.1810 hc         1 W1P       0.104700
     18 H6          38.4420    41.9910    -5.5610 hc         1 W1P       0.104700
     19 H7          39.4050    38.2880    -6.5570 hc         1 W1P       0.058033
     20 H8          38.7650    39.7520    -7.3240 hc         1 W1P       0.058033
     21 H9          40.4840    39.6510    -6.8990 hc         1 W1P       0.058033
     22 H10         39.4810    37.9190    -1.9190 ha         1 W1P       0.131500
     23 O           38.8620    42.4980    -2.7810 o          1 W1P      -0.502000
@<TRIPOS>BOND
     1     1     2 1   
     2     1     7 1   
     3     1    11 1   
     4     2     3 ar  
     5     2    12 ar  
     6     3     4 ar  
     7     3    13 1   
     8     4     5 ar  
     9     4    14 1   
    10     5     6 ar  
    11     5    15 1   
    12     6    12 ar  
    13     6    16 1   
    14     7     8 1   
    15     7    23 2   
    16     8     9 1   
    17     8    17 1   
    18     8    18 1   
    19     9    10 1   
    20     9    11 2   
    21    10    19 1   
    22    10    20 1   
    23    10    21 1   
    24    12    22 1   
@<TRIPOS>SUBSTRUCTURE
     1 W1P         1 TEMP              0 ****  ****    0 ROOT
