@<TRIPOS>MOLECULE
W1S
   23    24     1     0     0
SMALL
abcg2


@<TRIPOS>ATOM
      1 N1          -5.3740    13.4980     1.2850 na         1 W1S      -0.162500
      2 C4          -5.1790    14.2700     2.5110 c6         1 W1S       0.073600
      3 C5          -6.3160    12.5160     1.0810 cc         1 W1S      -0.224000
      4 C6          -6.1520    12.1050    -0.2130 cd         1 W1S       0.241900
      5 C7          -4.6800    13.6510     0.1250 cc         1 W1S       0.409800
      6 O           -2.5980    16.3000    -1.4110 o          1 W1S      -0.630100
      7 C           -3.3780    15.3500    -1.3290 c          1 W1S       0.605100
      8 N           -4.0960    14.9030    -2.3670 nt         1 W1S      -0.595000
      9 C1          -3.5290    14.6110     0.0100 c6         1 W1S      -0.171000
     10 N2          -5.1260    12.8120    -0.8000 nd         1 W1S      -0.712000
     11 C3          -3.7960    14.9040     2.5030 c6         1 W1S      -0.095400
     12 C2          -3.5370    15.6130     1.1770 c6         1 W1S      -0.068400
     13 H1          -5.9500    15.0430     2.5640 h1         1 W1S       0.059200
     14 H2          -5.3090    13.6000     3.3600 h1         1 W1S       0.059200
     15 H3          -6.9950    12.2130     1.8590 h4         1 W1S       0.158000
     16 H4          -6.7000    11.3490    -0.7500 h4         1 W1S       0.041100
     17 H5          -3.9610    15.3260    -3.2720 hn         1 W1S       0.335500
     18 H6          -4.6520    14.0600    -2.2690 hn         1 W1S       0.335500
     19 H7          -2.6080    14.0190     0.0900 hc         1 W1S       0.087700
     20 H8          -3.0360    14.1350     2.6670 hc         1 W1S       0.059200
     21 H9          -3.7320    15.6110     3.3310 hc         1 W1S       0.059200
     22 H10         -2.5830    16.1350     1.1990 hc         1 W1S       0.067700
     23 H11         -4.3140    16.3640     1.0040 hc         1 W1S       0.067700
@<TRIPOS>BOND
     1     1     2 1   
     2     1     3 1   
     3     1     5 1   
     4     2    11 1   
     5     2    13 1   
     6     2    14 1   
     7     3     4 2   
     8     3    15 1   
     9     4    10 1   
    10     4    16 1   
    11     5     9 1   
    12     5    10 2   
    13     6     7 2   
    14     7     8 1   
    15     7     9 1   
    16     8    17 1   
    17     8    18 1   
    18     9    12 1   
    19     9    19 1   
    20    11    12 1   
    21    11    20 1   
    22    11    21 1   
    23    12    22 1   
    24    12    23 1   
@<TRIPOS>SUBSTRUCTURE
     1 W1S         1 TEMP              0 ****  ****    0 ROOT
