@<TRIPOS>MOLECULE
W1S
   23    24     1     0     0
SMALL
No Charge or Current Charge


@<TRIPOS>ATOM
      1 N1          -5.2270    13.2040     1.2130 na         1 W1S      -0.162500
      2 C4          -5.3820    14.1120     2.3680 c6         1 W1S       0.073600
      3 C5          -5.9150    12.0320     0.9990 cc         1 W1S      -0.224000
      4 C6          -5.4560    11.5630    -0.2040 cd         1 W1S       0.241900
      5 C7          -4.3900    13.4180     0.1330 cc         1 W1S       0.409800
      6 O           -2.4310    14.5940    -2.1510 o          1 W1S      -0.630100
      7 C           -3.2930    15.0410    -1.4130 c          1 W1S       0.605100
      8 N           -4.1480    15.9760    -1.8820 nt         1 W1S      -0.595000
      9 C1          -3.4450    14.5940     0.0490 c6         1 W1S      -0.171000
     10 N2          -4.5080    12.4190    -0.7300 nd         1 W1S      -0.712000
     11 C3          -4.2120    15.1250     2.4350 c6         1 W1S      -0.095400
     12 C2          -3.9110    15.7180     1.0350 c6         1 W1S      -0.068400
     13 H1          -6.3320    14.6540     2.2570 h1         1 W1S       0.059200
     14 H2          -5.4310    13.5270     3.2970 h1         1 W1S       0.059200
     15 H3          -6.6490    11.6300     1.6850 h4         1 W1S       0.158000
     16 H4          -5.7530    10.6570    -0.7180 h4         1 W1S       0.041100
     17 H5          -4.0630    16.2820    -2.8390 hn         1 W1S       0.335500
     18 H6          -4.8730    16.3500    -1.2890 hn         1 W1S       0.335500
     19 H7          -2.4580    14.2250     0.3560 hc         1 W1S       0.087700
     20 H8          -3.3130    14.6270     2.8250 hc         1 W1S       0.059200
     21 H9          -4.4570    15.9270     3.1450 hc         1 W1S       0.059200
     22 H10         -3.1350    16.4920     1.1140 hc         1 W1S       0.067700
     23 H11         -4.8180    16.2200     0.6700 hc         1 W1S       0.067700
@<TRIPOS>BOND
     1     1     2 1   
     2     1     3 1   
     3     1     5 1   
     4     2    11 1   
     5     2    13 1   
     6     2    14 1   
     7     3     4 2   
     8     3    15 1   
     9     4    10 1   
    10     4    16 1   
    11     5     9 1   
    12     5    10 2   
    13     6     7 2   
    14     7     8 1   
    15     7     9 1   
    16     8    17 1   
    17     8    18 1   
    18     9    12 1   
    19     9    19 1   
    20    11    12 1   
    21    11    20 1   
    22    11    21 1   
    23    12    22 1   
    24    12    23 1   
@<TRIPOS>SUBSTRUCTURE
     1 W1S         1 TEMP              0 ****  ****    0 ROOT
