@<TRIPOS>MOLECULE
W1T
   31    32     1     0     0
SMALL
abcg2


@<TRIPOS>ATOM
      1 C1          22.0300    18.5220    30.9030 ca         1 W1T      -0.249000
      2 C2          22.7130    19.7480    30.9340 ca         1 W1T       0.370000
      3 C3          23.8010    19.9230    30.0560 ca         1 W1T      -0.217000
      4 C4          24.1730    18.9140    29.1980 ca         1 W1T       0.014000
      5 C9          23.7170    13.0620    27.8510 c6         1 W1T      -0.083400
      6 C8          23.7460    14.4370    27.1860 c6         1 W1T       0.036700
      7 O1          25.0090    16.8950    27.4820 o          1 W1T      -0.613100
      8 N1          23.3510    15.4850    28.0880 ns         1 W1T      -0.497900
      9 C12         22.8940    14.4530    25.9170 c          1 W1T       0.551000
     10 N2          22.8310    13.2640    25.2150 ns         1 W1T      -0.483500
     11 N3          22.3080    20.7540    31.7630 nv         1 W1T      -1.099000
     12 C6          22.4360    17.5430    30.0280 ca         1 W1T       0.243000
     13 F1          21.7230    16.3810    30.0660 f          1 W1T      -0.191000
     14 C5          23.5080    17.6770    29.1420 ca         1 W1T      -0.242600
     15 C7          24.0130    16.6650    28.1740 c          1 W1T       0.640700
     16 C11         23.3760    12.0380    25.5650 c          1 W1T       0.574000
     17 C10         24.1500    11.9940    26.8550 c6         1 W1T      -0.159400
     18 H1          21.1900    18.3350    31.5590 ha         1 W1T       0.134000
     19 H2          24.3430    20.8600    30.0630 ha         1 W1T       0.123000
     20 H3          25.0110    19.0570    28.5300 ha         1 W1T       0.144000
     21 H4          22.7070    12.8540    28.2150 hc         1 W1T       0.063700
     22 H5          24.3860    13.0680    28.7110 hc         1 W1T       0.063700
     23 H6          24.7650    14.6580    26.8570 h1         1 W1T       0.109700
     24 H7          22.5180    15.3450    28.6350 hn         1 W1T       0.334500
     25 H8          22.3040    13.2870    24.3490 hn         1 W1T       0.330500
     26 H9          21.6880    20.5320    32.5250 hn         1 W1T       0.476500
     27 H10         22.9430    21.5170    31.9330 hn         1 W1T       0.476500
     28 H11         24.0500    10.9900    27.2640 hc         1 W1T       0.083200
     29 H12         25.2040    12.1320    26.5900 hc         1 W1T       0.083200
     30 O2          22.3140    15.4400    25.5120 o          1 W1T      -0.500000
     31 O3          23.2250    11.0770    24.8340 o          1 W1T      -0.518000
@<TRIPOS>BOND
     1     1     2 ar  
     2     1    12 ar  
     3     1    18 1   
     4     2     3 ar  
     5     2    11 1   
     6     3     4 ar  
     7     3    19 1   
     8     4    14 ar  
     9     4    20 1   
    10     5     6 1   
    11     5    17 1   
    12     5    21 1   
    13     5    22 1   
    14     6     8 1   
    15     6     9 1   
    16     6    23 1   
    17     7    15 2   
    18     8    15 1   
    19     8    24 1   
    20     9    10 1   
    21     9    30 2   
    22    10    16 1   
    23    10    25 1   
    24    11    26 1   
    25    11    27 1   
    26    12    13 1   
    27    12    14 ar  
    28    14    15 1   
    29    16    17 1   
    30    16    31 2   
    31    17    28 1   
    32    17    29 1   
@<TRIPOS>SUBSTRUCTURE
     1 W1T         1 TEMP              0 ****  ****    0 ROOT
