@<TRIPOS>MOLECULE
W1T
   31    32     1     0     0
SMALL
No Charge or Current Charge


@<TRIPOS>ATOM
      1 C1          22.1260    18.4570    30.9950 ca         1 W1T      -0.249000
      2 C2          22.6500    19.7460    30.9310 ca         1 W1T       0.370000
      3 C3          23.6170    20.0580    29.9750 ca         1 W1T      -0.217000
      4 C4          24.0670    19.0760    29.0770 ca         1 W1T       0.014000
      5 C9          23.6650    12.9850    27.8740 c6         1 W1T      -0.083400
      6 C8          23.8970    14.3740    27.2300 c6         1 W1T       0.036700
      7 O1          24.9320    17.0500    27.3070 o          1 W1T      -0.613100
      8 N1          23.5810    15.4680    28.1810 ns         1 W1T      -0.497900
      9 C12         23.1770    14.5070    25.8500 c          1 W1T       0.551000
     10 N2          22.9100    13.3490    25.1690 ns         1 W1T      -0.483500
     11 N3          22.2160    20.7000    31.8010 nv         1 W1T      -1.099000
     12 C6          22.5670    17.4690    30.1050 ca         1 W1T       0.243000
     13 F1          22.0160    16.2410    30.2220 f          1 W1T      -0.191000
     14 C5          23.5510    17.7600    29.1250 ca         1 W1T      -0.242600
     15 C7          24.0780    16.7500    28.1290 c          1 W1T       0.640700
     16 C11         23.2040    12.0610    25.5140 c          1 W1T       0.574000
     17 C10         23.9140    11.8470    26.8550 c6         1 W1T      -0.159400
     18 H1          21.3720    18.2100    31.7350 ha         1 W1T       0.134000
     19 H2          24.0270    21.0620    29.9210 ha         1 W1T       0.123000
     20 H3          24.8230    19.3480    28.3420 ha         1 W1T       0.144000
     21 H4          22.6300    12.9190    28.2400 hc         1 W1T       0.063700
     22 H5          24.3160    12.8580    28.7510 hc         1 W1T       0.063700
     23 H6          24.9670    14.4420    26.9820 h1         1 W1T       0.109700
     24 H7          22.8840    15.2960    28.8960 hn         1 W1T       0.334500
     25 H8          22.4390    13.4630    24.2840 hn         1 W1T       0.330500
     26 H9          21.6570    20.4220    32.6060 hn         1 W1T       0.476500
     27 H10         22.7250    21.5790    31.8750 hn         1 W1T       0.476500
     28 H11         23.6790    10.8490    27.2490 hc         1 W1T       0.083200
     29 H12         24.9880    11.8480    26.6230 hc         1 W1T       0.083200
     30 O2          22.8870    15.5840    25.3510 o          1 W1T      -0.500000
     31 O3          22.8630    11.1290    24.8050 o          1 W1T      -0.518000
@<TRIPOS>BOND
     1     1     2 ar  
     2     1    12 ar  
     3     1    18 1   
     4     2     3 ar  
     5     2    11 1   
     6     3     4 ar  
     7     3    19 1   
     8     4    14 ar  
     9     4    20 1   
    10     5     6 1   
    11     5    17 1   
    12     5    21 1   
    13     5    22 1   
    14     6     8 1   
    15     6     9 1   
    16     6    23 1   
    17     7    15 2   
    18     8    15 1   
    19     8    24 1   
    20     9    10 1   
    21     9    30 2   
    22    10    16 1   
    23    10    25 1   
    24    11    26 1   
    25    11    27 1   
    26    12    13 1   
    27    12    14 ar  
    28    14    15 1   
    29    16    17 1   
    30    16    31 2   
    31    17    28 1   
    32    17    29 1   
@<TRIPOS>SUBSTRUCTURE
     1 W1T         1 TEMP              0 ****  ****    0 ROOT
