@<TRIPOS>MOLECULE
W1V
   25    25     1     0     0
SMALL
abcg2


@<TRIPOS>ATOM
      1 N1          -1.5770    14.7990     1.1050 na         1 W1V       0.131800
      2 C4          -1.6960    14.5250    -1.3630 c3         1 W1V      -0.034800
      3 C5          -3.5350    15.3370     0.3040 cc         1 W1V      -0.220300
      4 C6          -4.6960    15.6120    -0.5880 c3         1 W1V      -0.080100
      5 C7          -5.7610    14.5290    -0.6960 c          1 W1V       0.603100
      6 O           -6.7880    14.7330    -1.3300 o          1 W1V      -0.621100
      7 N2          -5.4980    13.3720    -0.0780 nt         1 W1V      -0.602000
      8 C1          -3.4840    15.4890     1.7060 cc         1 W1V       0.265300
      9 C           -4.5820    15.9420     2.6060 c3         1 W1V      -0.122400
     10 C3          -2.2760    14.8840    -0.0430 cd         1 W1V      -0.126300
     11 N           -2.2940    15.1600     2.1720 nd         1 W1V      -0.521800
     12 C2          -0.2130    14.3530     1.2530 c3         1 W1V       0.068900
     13 H1          -0.8340    15.1470    -1.6120 hc         1 W1V       0.053033
     14 H2          -1.3660    13.4850    -1.3880 hc         1 W1V       0.053033
     15 H3          -2.4350    14.6550    -2.1510 hc         1 W1V       0.053033
     16 H4          -4.3590    15.8130    -1.6090 hc         1 W1V       0.074200
     17 H5          -5.2100    16.5240    -0.2730 hc         1 W1V       0.074200
     18 H6          -6.1480    12.6050    -0.1370 hn         1 W1V       0.315500
     19 H7          -4.6400    13.2250     0.4250 hn         1 W1V       0.315500
     20 H8          -4.2280    16.0440     3.6310 hc         1 W1V       0.050033
     21 H9          -4.9840    16.9070     2.2900 hc         1 W1V       0.050033
     22 H10         -5.4130    15.2340     2.6070 hc         1 W1V       0.050033
     23 H11          0.0730    14.4700     2.2940 h1         1 W1V       0.057367
     24 H12         -0.1110    13.3040     0.9760 h1         1 W1V       0.057367
     25 H13          0.4610    14.9450     0.6360 h1         1 W1V       0.057367
@<TRIPOS>BOND
     1     1    10 1   
     2     1    11 1   
     3     1    12 1   
     4     2    10 1   
     5     2    13 1   
     6     2    14 1   
     7     2    15 1   
     8     3     4 1   
     9     3     8 1   
    10     3    10 2   
    11     4     5 1   
    12     4    16 1   
    13     4    17 1   
    14     5     6 2   
    15     5     7 1   
    16     7    18 1   
    17     7    19 1   
    18     8     9 1   
    19     8    11 2   
    20     9    20 1   
    21     9    21 1   
    22     9    22 1   
    23    12    23 1   
    24    12    24 1   
    25    12    25 1   
@<TRIPOS>SUBSTRUCTURE
     1 W1V         1 TEMP              0 ****  ****    0 ROOT
