@<TRIPOS>MOLECULE
W1V
   25    25     1     0     0
SMALL
No Charge or Current Charge


@<TRIPOS>ATOM
      1 N1          -1.5440    14.9540     1.3540 na         1 W1V       0.131800
      2 C4          -1.7520    14.1220    -1.0750 c3         1 W1V      -0.034800
      3 C5          -3.5120    15.3070     0.4450 cc         1 W1V      -0.220300
      4 C6          -4.7290    15.3950    -0.4580 c3         1 W1V      -0.080100
      5 C7          -5.6420    14.1590    -0.3960 c          1 W1V       0.603100
      6 O           -6.3960    13.9260     0.5350 o          1 W1V      -0.621100
      7 N2          -5.5760    13.3070    -1.4420 nt         1 W1V      -0.602000
      8 C1          -3.4430    15.7710     1.7780 cc         1 W1V       0.265300
      9 C           -4.5900    16.4370     2.4880 c3         1 W1V      -0.122400
     10 C3          -2.2830    14.7750     0.1780 cd         1 W1V      -0.126300
     11 N           -2.2750    15.5760     2.3530 nd         1 W1V      -0.521800
     12 C2          -0.1470    14.5520     1.5820 c3         1 W1V       0.068900
     13 H1          -0.9940    14.7540    -1.5540 hc         1 W1V       0.053033
     14 H2          -1.2890    13.1540    -0.8500 hc         1 W1V       0.053033
     15 H3          -2.5460    13.9440    -1.8080 hc         1 W1V       0.053033
     16 H4          -4.3840    15.5320    -1.4890 hc         1 W1V       0.074200
     17 H5          -5.3280    16.2690    -0.1810 hc         1 W1V       0.074200
     18 H6          -6.1550    12.4810    -1.4410 hn         1 W1V       0.315500
     19 H7          -4.9510    13.4960    -2.2120 hn         1 W1V       0.315500
     20 H8          -4.3390    16.6540     3.5320 hc         1 W1V       0.050033
     21 H9          -4.8500    17.3840     2.0020 hc         1 W1V       0.050033
     22 H10         -5.4770    15.7940     2.4850 hc         1 W1V       0.050033
     23 H11          0.1890    14.8990     2.5670 h1         1 W1V       0.057367
     24 H12         -0.0710    13.4590     1.5390 h1         1 W1V       0.057367
     25 H13          0.4900    14.9920     0.8070 h1         1 W1V       0.057367
@<TRIPOS>BOND
     1     1    10 1   
     2     1    11 1   
     3     1    12 1   
     4     2    10 1   
     5     2    13 1   
     6     2    14 1   
     7     2    15 1   
     8     3     4 1   
     9     3     8 1   
    10     3    10 2   
    11     4     5 1   
    12     4    16 1   
    13     4    17 1   
    14     5     6 2   
    15     5     7 1   
    16     7    18 1   
    17     7    19 1   
    18     8     9 1   
    19     8    11 2   
    20     9    20 1   
    21     9    21 1   
    22     9    22 1   
    23    12    23 1   
    24    12    24 1   
    25    12    25 1   
@<TRIPOS>SUBSTRUCTURE
     1 W1V         1 TEMP              0 ****  ****    0 ROOT
