@<TRIPOS>MOLECULE
W1W
   23    24     1     0     0
SMALL
No Charge or Current Charge


@<TRIPOS>ATOM
      1 N1          29.2290    16.2800    42.9140 nb         1 W1W      -0.586000
      2 C7          31.5950    14.8770    42.2190 ca         1 W1W      -0.166000
      3 C8          31.6670    16.0170    43.0350 ca         1 W1W       0.277000
      4 N2          32.9020    16.4420    43.4920 nv         1 W1W      -1.084000
      5 C9          30.4490    16.6830    43.3540 ca         1 W1W       0.258900
      6 C1          28.4040    14.5050    37.1230 ca         1 W1W      -0.174000
      7 C5          29.1810    15.1840    42.1270 ca         1 W1W       0.387300
      8 C6          30.3310    14.4550    41.7610 ca         1 W1W      -0.056000
      9 C4          28.3990    15.7810    39.1610 ca         1 W1W      -0.153000
     10 C3          27.9030    14.6410    39.8190 ca         1 W1W       0.464300
     11 C2          27.9050    13.4160    37.8570 ca         1 W1W       0.345900
     12 S           27.5700    14.6810    41.5650 ss         1 W1W      -0.366600
     13 C           28.6580    15.7180    37.7830 ca         1 W1W      -0.063000
     14 N           27.6560    13.4760    39.1850 nb         1 W1W      -0.672000
     15 H1          32.4910    14.3260    41.9460 ha         1 W1W       0.119000
     16 H2          33.7560    16.0080    43.1440 hn         1 W1W       0.463000
     17 H3          32.9930    17.3300    43.9880 hn         1 W1W       0.463000
     18 H4          30.4550    17.5710    43.9860 h4         1 W1W       0.019100
     19 H6          30.2420    13.5720    41.1340 ha         1 W1W       0.131000
     20 H7          28.5750    16.7000    39.7140 ha         1 W1W       0.131000
     21 H8          27.6990    12.4650    37.3670 h4         1 W1W       0.018100
     22 H9          29.0420    16.5820    37.2440 ha         1 W1W       0.119000
     23 H5          28.5880    14.4040    36.0570 ha         1 W1W       0.123000
@<TRIPOS>BOND
     1     1     5 ar  
     2     1     7 ar  
     3     2     3 ar  
     4     2     8 ar  
     5     2    15 1   
     6     3     4 1   
     7     3     5 ar  
     8     4    16 1   
     9     4    17 1   
    10     5    18 1   
    11     6    11 ar  
    12     6    13 ar  
    13     6    23 1   
    14     7     8 ar  
    15     7    12 1   
    16     8    19 1   
    17     9    10 ar  
    18     9    13 ar  
    19     9    20 1   
    20    10    12 1   
    21    10    14 ar  
    22    11    14 ar  
    23    11    21 1   
    24    13    22 1   
@<TRIPOS>SUBSTRUCTURE
     1 W1W         1 TEMP              0 ****  ****    0 ROOT
