@<TRIPOS>MOLECULE
W1W
   23    24     1     0     0
SMALL
abcg2


@<TRIPOS>ATOM
      1 N1          30.0870    16.7440    42.1220 nb         1 W1W      -0.586000
      2 C7          31.1600    14.3710    43.0940 ca         1 W1W      -0.166000
      3 C8          31.9040    15.5550    43.1700 ca         1 W1W       0.277000
      4 N2          33.1430    15.6010    43.7600 nv         1 W1W      -1.084000
      5 C9          31.3000    16.7200    42.6610 ca         1 W1W       0.258900
      6 C1          28.4620    14.8630    36.9640 ca         1 W1W      -0.174000
      7 C5          29.3940    15.6070    42.0530 ca         1 W1W       0.387300
      8 C6          29.8960    14.4000    42.5350 ca         1 W1W      -0.056000
      9 C4          26.9610    15.3550    38.7640 ca         1 W1W      -0.153000
     10 C3          28.0730    15.3580    39.6150 ca         1 W1W       0.464300
     11 C2          29.4940    14.8920    37.8880 ca         1 W1W       0.345900
     12 S           27.7630    15.6790    41.3430 ss         1 W1W      -0.366600
     13 C           27.1670    15.1010    37.4210 ca         1 W1W      -0.063000
     14 N           29.3110    15.1340    39.1930 nb         1 W1W      -0.672000
     15 H1          31.5760    13.4440    43.4710 ha         1 W1W       0.119000
     16 H2          33.6480    14.7300    43.8320 hn         1 W1W       0.463000
     17 H3          33.7280    16.3920    43.5360 hn         1 W1W       0.463000
     18 H4          31.8400    17.6610    42.7010 h4         1 W1W       0.019100
     19 H6          29.3050    13.4980    42.4610 ha         1 W1W       0.131000
     20 H7          25.9700    15.5450    39.1540 ha         1 W1W       0.131000
     21 H8          30.5170    14.7130    37.5780 h4         1 W1W       0.018100
     22 H9          26.3280    15.0890    36.7360 ha         1 W1W       0.119000
     23 H5          28.6650    14.6610    35.9220 ha         1 W1W       0.123000
@<TRIPOS>BOND
     1     1     5 ar  
     2     1     7 ar  
     3     2     3 ar  
     4     2     8 ar  
     5     2    15 1   
     6     3     4 1   
     7     3     5 ar  
     8     4    16 1   
     9     4    17 1   
    10     5    18 1   
    11     6    11 ar  
    12     6    13 ar  
    13     6    23 1   
    14     7     8 ar  
    15     7    12 1   
    16     8    19 1   
    17     9    10 ar  
    18     9    13 ar  
    19     9    20 1   
    20    10    12 1   
    21    10    14 ar  
    22    11    14 ar  
    23    11    21 1   
    24    13    22 1   
@<TRIPOS>SUBSTRUCTURE
     1 W1W         1 TEMP              0 ****  ****    0 ROOT
