@<TRIPOS>MOLECULE
W1X
   34    35     1     0     0
SMALL
abcg2


@<TRIPOS>ATOM
      1 C4          22.4790    17.7620    -7.1950 c6         1 W1X      -0.160400
      2 C3          23.5850    18.7790    -7.4460 c6         1 W1X      -0.081400
      3 N2          26.0210    19.1030    -7.2940 ns         1 W1X      -0.492900
      4 C5          22.7370    16.4240    -7.8360 c          1 W1X       0.574000
      5 N1          24.0640    16.1030    -8.0770 ns         1 W1X      -0.483500
      6 C6          27.0900    19.1940    -6.4670 c          1 W1X       0.626700
      7 C11         29.7470    20.5500    -8.7820 ca         1 W1X      -0.167000
      8 C10         30.4140    21.4980    -7.9960 ca         1 W1X       0.319000
      9 C9          29.9440    21.7230    -6.6910 ca         1 W1X      -0.151000
     10 C8          28.8660    21.0160    -6.1850 ca         1 W1X      -0.090300
     11 C7          28.2000    20.0610    -6.9710 ca         1 W1X      -0.153600
     12 C1          25.1850    16.8630    -7.8090 c          1 W1X       0.551000
     13 C2          24.9380    18.1810    -7.0730 c6         1 W1X       0.033700
     14 O1          27.1540    18.5910    -5.3970 o          1 W1X      -0.573100
     15 C12         28.6620    19.8600    -8.2740 ca         1 W1X      -0.048000
     16 O2          26.2880    16.4720    -8.1290 o          1 W1X      -0.507000
     17 O3          21.8610    15.6320    -8.1260 o          1 W1X      -0.514000
     18 F1          28.8790    22.5410    -4.3630 f          1 W1X      -0.107333
     19 F2          28.9040    20.4390    -3.8700 f          1 W1X      -0.107333
     20 F3          27.0890    21.3640    -4.6350 f          1 W1X      -0.107333
     21 N3          31.4590    22.2360    -8.4990 nv         1 W1X      -1.081000
     22 H5          21.5120    18.1160    -7.5500 hc         1 W1X       0.085200
     23 H4          22.3780    17.5750    -6.1200 hc         1 W1X       0.085200
     24 H2          23.4140    19.6750    -6.8510 hc         1 W1X       0.064200
     25 H3          23.5970    19.0750    -8.4990 hc         1 W1X       0.064200
     26 H7          26.0290    19.6220    -8.1580 hn         1 W1X       0.320500
     27 H6          24.2320    15.2070    -8.5220 hn         1 W1X       0.331500
     28 H10         30.0900    20.3560    -9.7910 ha         1 W1X       0.123000
     29 H8          30.4340    22.4710    -6.0840 ha         1 W1X       0.135000
     30 H1          24.9390    17.9280    -6.0080 h1         1 W1X       0.112700
     31 H11         28.1780    19.1190    -8.8970 ha         1 W1X       0.127000
     32 HN3         32.0840    22.6570    -7.8280 hn         1 W1X       0.465000
     33 HN31        31.9330    21.8550    -9.3050 hn         1 W1X       0.465000
     34 C13         28.4320    21.3310    -4.7730 c3         1 W1X       0.343300
@<TRIPOS>BOND
     1     1     2 1   
     2     1     4 1   
     3     1    22 1   
     4     1    23 1   
     5     2    13 1   
     6     2    24 1   
     7     2    25 1   
     8     3     6 1   
     9     3    13 1   
    10     3    26 1   
    11     4     5 1   
    12     4    17 2   
    13     5    12 1   
    14     5    27 1   
    15     6    11 1   
    16     6    14 2   
    17     7     8 ar  
    18     7    15 ar  
    19     7    28 1   
    20     8     9 ar  
    21     8    21 1   
    22     9    10 ar  
    23     9    29 1   
    24    10    11 ar  
    25    10    34 1   
    26    11    15 ar  
    27    12    13 1   
    28    12    16 2   
    29    13    30 1   
    30    15    31 1   
    31    18    34 1   
    32    19    34 1   
    33    20    34 1   
    34    21    32 1   
    35    21    33 1   
@<TRIPOS>SUBSTRUCTURE
     1 W1X         1 TEMP              0 ****  ****    0 ROOT
