@<TRIPOS>MOLECULE
W1X
   34    35     1     0     0
SMALL
No Charge or Current Charge


@<TRIPOS>ATOM
      1 C4          22.3930    17.7580    -7.6150 c6         1 W1X      -0.160400
      2 C3          23.5780    18.7410    -7.7760 c6         1 W1X      -0.081400
      3 N2          25.9920    19.1320    -7.2360 ns         1 W1X      -0.492900
      4 C5          22.7670    16.2980    -7.8930 c          1 W1X       0.574000
      5 N1          24.0780    15.9540    -7.7260 ns         1 W1X      -0.483500
      6 C6          27.0760    19.2620    -6.3920 c          1 W1X       0.626700
      7 C11         29.5430    20.8120    -8.8650 ca         1 W1X      -0.167000
      8 C10         30.3500    21.6040    -8.0480 ca         1 W1X       0.319000
      9 C9          30.0950    21.6670    -6.6730 ca         1 W1X      -0.151000
     10 C8          29.0280    20.9440    -6.0810 ca         1 W1X      -0.090300
     11 C7          28.2130    20.1190    -6.9210 ca         1 W1X      -0.153600
     12 C1          25.1290    16.7310    -7.3200 c          1 W1X       0.551000
     13 C2          24.8310    18.2350    -7.0190 c6         1 W1X       0.033700
     14 O1          27.1180    18.6690    -5.3240 o          1 W1X      -0.573100
     15 C12         28.4870    20.0750    -8.3110 ca         1 W1X      -0.048000
     16 O2          26.2330    16.2300    -7.1710 o          1 W1X      -0.507000
     17 O3          21.9530    15.4860    -8.2990 o          1 W1X      -0.514000
     18 F1          29.4300    22.1670    -4.0340 f          1 W1X      -0.107333
     19 F2          29.1750    20.0260    -3.8630 f          1 W1X      -0.107333
     20 F3          27.4640    21.3160    -4.2830 f          1 W1X      -0.107333
     21 N3          31.3850    22.3150    -8.5920 nv         1 W1X      -1.081000
     22 H5          21.5110    18.0380    -8.2060 hc         1 W1X       0.085200
     23 H4          22.0870    17.7880    -6.5610 hc         1 W1X       0.085200
     24 H2          23.2930    19.7400    -7.4160 hc         1 W1X       0.064200
     25 H3          23.8130    18.8470    -8.8450 hc         1 W1X       0.064200
     26 H7          26.0280    19.6750    -8.0900 hn         1 W1X       0.320500
     27 H6          24.3000    14.9890    -7.9190 hn         1 W1X       0.331500
     28 H10         29.7360    20.7550    -9.9330 ha         1 W1X       0.123000
     29 H8          30.7380    22.2960    -6.0630 ha         1 W1X       0.135000
     30 H1          24.5900    18.2500    -5.9460 h1         1 W1X       0.112700
     31 H11         27.9000    19.4420    -8.9740 ha         1 W1X       0.127000
     32 HN3         32.0680    22.7620    -7.9830 hn         1 W1X       0.465000
     33 HN31        31.6630    22.1470    -9.5580 hn         1 W1X       0.465000
     34 C13         28.7720    21.1090    -4.5640 c3         1 W1X       0.343300
@<TRIPOS>BOND
     1     1     2 1   
     2     1     4 1   
     3     1    22 1   
     4     1    23 1   
     5     2    13 1   
     6     2    24 1   
     7     2    25 1   
     8     3     6 1   
     9     3    13 1   
    10     3    26 1   
    11     4     5 1   
    12     4    17 2   
    13     5    12 1   
    14     5    27 1   
    15     6    11 1   
    16     6    14 2   
    17     7     8 ar  
    18     7    15 ar  
    19     7    28 1   
    20     8     9 ar  
    21     8    21 1   
    22     9    10 ar  
    23     9    29 1   
    24    10    11 ar  
    25    10    34 1   
    26    11    15 ar  
    27    12    13 1   
    28    12    16 2   
    29    13    30 1   
    30    15    31 1   
    31    18    34 1   
    32    19    34 1   
    33    20    34 1   
    34    21    32 1   
    35    21    33 1   
@<TRIPOS>SUBSTRUCTURE
     1 W1X         1 TEMP              0 ****  ****    0 ROOT
