@<TRIPOS>MOLECULE
W1Y
   27    28     1     0     0
SMALL
bcc


@<TRIPOS>ATOM
      1 N1          -7.2760    15.3470     0.3290 nc         1 W1Y      -0.517800
      2 C4          -6.3780    14.9200     2.3250 cc         1 W1Y      -0.103300
      3 C5          -4.9320    14.9390     0.3090 ca         1 W1Y       0.021800
      4 C6          -3.7290    15.0910     0.9910 ca         1 W1Y      -0.133500
      5 C7          -2.5300    14.9450     0.3090 ca         1 W1Y      -0.114500
      6 C8          -2.5190    14.6630    -1.0500 ca         1 W1Y      -0.134000
      7 C10         -4.9310    14.6580    -1.0540 ca         1 W1Y      -0.133500
      8 C           -8.4700    14.1770     6.0630 c3         1 W1Y       0.145100
      9 N           -7.7870    14.2210     4.7870 n7         1 W1Y      -0.808200
     10 C2          -7.7210    15.1130     2.5300 cd         1 W1Y      -0.274600
     11 N2          -6.1550    15.0700     0.9950 na         1 W1Y       0.171300
     12 C3          -8.2250    15.3740     1.2400 cd         1 W1Y       0.313200
     13 C9          -3.7250    14.5270    -1.7250 ca         1 W1Y      -0.114500
     14 H1          -5.5930    14.6660     3.0170 h4         1 W1Y       0.184000
     15 H2          -3.7140    15.3350     2.0450 ha         1 W1Y       0.150000
     16 H3          -1.5990    15.0650     0.8480 ha         1 W1Y       0.135500
     17 H4          -1.5820    14.5530    -1.5780 ha         1 W1Y       0.135000
     18 H5          -5.8650    14.5380    -1.5850 ha         1 W1Y       0.150000
     19 H6          -7.9640    13.4780     6.7280 h1         1 W1Y       0.029367
     20 H7          -8.4410    15.1620     6.5350 h1         1 W1Y       0.029367
     21 H8          -9.5250    13.8760     5.9980 h1         1 W1Y       0.029367
     22 H9          -7.7220    13.2820     4.4130 hn         1 W1Y       0.353800
     23 H11         -8.5360    16.0700     4.2470 h1         1 W1Y       0.035700
     24 H12         -9.5040    14.7510     3.6300 h1         1 W1Y       0.035700
     25 H13         -9.2460    15.5810     0.9560 h4         1 W1Y       0.037100
     26 H14         -3.7320    14.3100    -2.7850 ha         1 W1Y       0.135500
     27 C1          -8.4650    15.0620     3.8230 c3         1 W1Y       0.242100
@<TRIPOS>BOND
     1     1    11 1   
     2     1    12 2   
     3     2    10 2   
     4     2    11 1   
     5     2    14 1   
     6     3     4 ar  
     7     3     7 ar  
     8     3    11 1   
     9     4     5 ar  
    10     4    15 1   
    11     5     6 ar  
    12     5    16 1   
    13     6    13 ar  
    14     6    17 1   
    15     7    13 ar  
    16     7    18 1   
    17     8     9 1   
    18     8    19 1   
    19     8    20 1   
    20     8    21 1   
    21     9    22 1   
    22     9    27 1   
    23    10    12 1   
    24    10    27 1   
    25    12    25 1   
    26    13    26 1   
    27    23    27 1   
    28    24    27 1   
@<TRIPOS>SUBSTRUCTURE
     1 W1Y         1 TEMP              0 ****  ****    0 ROOT
