@<TRIPOS>MOLECULE
W1Y
   27    28     1     0     0
SMALL
No Charge or Current Charge


@<TRIPOS>ATOM
      1 N1          -7.2960    15.4320     0.3640 nc         1 W1Y      -0.517800
      2 C4          -6.2290    14.9680     2.3970 cc         1 W1Y      -0.136000
      3 C5          -4.9340    14.9560     0.3100 ca         1 W1Y       0.021800
      4 C6          -3.7360    15.5040     0.8190 ca         1 W1Y      -0.115500
      5 C7          -2.5300    15.3620     0.1090 ca         1 W1Y      -0.096500
      6 C8          -2.5100    14.6730    -1.1150 ca         1 W1Y      -0.116000
      7 C10         -4.9030    14.2660    -0.9220 ca         1 W1Y      -0.115500
      8 C           -8.6960    13.8850     5.9940 c3         1 W1Y       0.145100
      9 N           -8.0110    13.9940     4.6920 n7         1 W1Y      -0.863400
     10 C2          -7.5550    15.2260     2.6330 cd         1 W1Y      -0.209300
     11 N2          -6.1350    15.0930     1.0190 na         1 W1Y       0.222000
     12 C3          -8.1470    15.5000     1.3720 cd         1 W1Y       0.247900
     13 C9          -3.6970    14.1250    -1.6300 ca         1 W1Y      -0.096500
     14 H1          -5.4030    14.7130     3.0480 h4         1 W1Y       0.166000
     15 H2          -3.7380    16.0470     1.7610 ha         1 W1Y       0.132000
     16 H3          -1.6120    15.7890     0.5070 ha         1 W1Y       0.117500
     17 H4          -1.5770    14.5640    -1.6630 ha         1 W1Y       0.117000
     18 H5          -5.8150    13.8340    -1.3290 ha         1 W1Y       0.132000
     19 H6          -8.4530    12.9310     6.4800 h1         1 W1Y       0.029367
     20 H7          -8.3880    14.6970     6.6670 h1         1 W1Y       0.029367
     21 H8          -9.7860    13.9360     5.8700 h1         1 W1Y       0.029367
     22 H9          -8.3250    13.2170     4.0970 hn         1 W1Y       0.409000
     23 H11         -7.9190    16.1080     4.5340 h1         1 W1Y       0.035700
     24 H12         -9.3430    15.3690     3.7770 h1         1 W1Y       0.035700
     25 H13         -9.1800    15.7530     1.1700 h4         1 W1Y       0.037100
     26 H14         -3.6820    13.5900    -2.5780 ha         1 W1Y       0.117500
     27 C1          -8.2660    15.2410     3.9550 c3         1 W1Y       0.242100
@<TRIPOS>BOND
     1     1    11 1   
     2     1    12 2   
     3     2    10 2   
     4     2    11 1   
     5     2    14 1   
     6     3     4 ar  
     7     3     7 ar  
     8     3    11 1   
     9     4     5 ar  
    10     4    15 1   
    11     5     6 ar  
    12     5    16 1   
    13     6    13 ar  
    14     6    17 1   
    15     7    13 ar  
    16     7    18 1   
    17     8     9 1   
    18     8    19 1   
    19     8    20 1   
    20     8    21 1   
    21     9    22 1   
    22     9    27 1   
    23    10    12 1   
    24    10    27 1   
    25    12    25 1   
    26    13    26 1   
    27    23    27 1   
    28    24    27 1   
@<TRIPOS>SUBSTRUCTURE
     1 W1Y         1 TEMP              0 ****  ****    0 ROOT
