@<TRIPOS>MOLECULE
W1Z
   61    62     1     0     0
SMALL
No Charge or Current Charge


@<TRIPOS>ATOM
      1 FBS          9.4650     0.8100     1.4000 f          1 W1Z      -0.082667
      2 CBR          9.3770    -0.1150     0.4160 c3         1 W1Z       0.284000
      3 FBT         10.4760     0.0190    -0.3640 f          1 W1Z      -0.082667
      4 FBU          9.4390    -1.3330     1.0030 f          1 W1Z      -0.082667
      5 CBQ          8.0680     0.0560    -0.4250 c3         1 W1Z       0.081000
      6 FBV          8.0880     1.2850    -0.9950 f          1 W1Z      -0.060500
      7 FBW          8.1140    -0.8250    -1.4550 f          1 W1Z      -0.060500
      8 CAZ          6.7130    -0.1370     0.3620 c3         1 W1Z       0.110000
      9 FBX          6.6780    -1.3980     0.8570 f          1 W1Z      -0.061000
     10 FBY          6.7300     0.6660     1.4540 f          1 W1Z      -0.061000
     11 CAY          5.3820     0.1380    -0.4490 c3         1 W1Z       0.116000
     12 FBO          5.3660     1.4400    -0.8240 f          1 W1Z      -0.059500
     13 FBP          5.4260    -0.5610    -1.6100 f          1 W1Z      -0.059500
     14 CAX          4.0240    -0.2010     0.2910 c3         1 W1Z       0.114000
     15 FBA          3.9790    -1.5360     0.5210 f          1 W1Z      -0.060500
     16 FBB          4.0420     0.3660     1.5220 f          1 W1Z      -0.060500
     17 CAW          2.6930     0.2390    -0.4460 c3         1 W1Z       0.115000
     18 FBC          2.6670     1.5910    -0.5190 f          1 W1Z      -0.060000
     19 FBD          2.7450    -0.1810    -1.7330 f          1 W1Z      -0.060000
     20 CAV          1.3360    -0.2670     0.1940 c3         1 W1Z       0.111000
     21 FBE          1.2930    -1.6180     0.1030 f          1 W1Z      -0.061500
     22 FBF          1.3530    -0.0060     1.5230 f          1 W1Z      -0.061500
     23 CAU          0.0050     0.3310    -0.4200 c3         1 W1Z       0.114000
     24 FBG         -0.0270     1.6620    -0.1670 f          1 W1Z      -0.059000
     25 FBH          0.0600     0.2310    -1.7700 f          1 W1Z      -0.059000
     26 CAT         -1.3500    -0.3170     0.0770 c3         1 W1Z       0.103000
     27 FBI         -1.3900    -1.6080    -0.3320 f          1 W1Z      -0.069500
     28 FBJ         -1.3390    -0.3790     1.4310 f          1 W1Z      -0.069500
     29 CAS         -2.6800     0.4040    -0.3830 c3         1 W1Z       0.116000
     30 FBK         -2.7300     1.6380     0.1780 f          1 W1Z      -0.053500
     31 FBL         -2.6340     0.6290    -1.7180 f          1 W1Z      -0.053500
     32 CAR         -4.0270    -0.3270    -0.0510 c3         1 W1Z       0.051000
     33 FBM         -4.0970    -1.4930    -0.7420 f          1 W1Z      -0.091500
     34 FBN         -4.0480    -0.6820     1.2600 f          1 W1Z      -0.091500
     35 CAP         -5.2550     0.5600    -0.4040 c          1 W1Z       0.585100
     36 OAQ         -5.6270     0.7450    -1.5580 o          1 W1Z      -0.576100
     37 N           -5.9190     1.1180     0.6760 ns         1 W1Z      -0.412900
     38 CA          -7.1880     1.8830     0.6030 c3         1 W1Z      -0.047300
     39 C           -7.1570     3.0750     1.6000 c          1 W1Z       0.716000
     40 OXT         -7.4140     4.1910     1.1720 o          1 W1Z      -0.710500
     41 O           -6.7860     2.8630     2.7470 o          1 W1Z      -0.710500
     42 CB          -8.4280     0.9850     0.8490 c3         1 W1Z      -0.011200
     43 CG          -8.5290    -0.1930    -0.0880 cc         1 W1Z      -0.110400
     44 CD2         -7.9100    -1.4800     0.0750 ca         1 W1Z      -0.091800
     45 CE3         -7.1170    -1.9840     1.1180 ca         1 W1Z      -0.049000
     46 CZ3         -6.6240    -3.3000     0.9980 ca         1 W1Z      -0.153000
     47 CH2         -6.9350    -4.0770    -0.1430 ca         1 W1Z      -0.100000
     48 CZ2         -7.7430    -3.5440    -1.1680 ca         1 W1Z      -0.139000
     49 CE2         -8.2170    -2.2330    -1.0230 ca         1 W1Z      -0.051200
     50 NE1         -9.0170    -1.5200    -1.8970 na         1 W1Z      -0.232700
     51 CD1         -9.2060    -0.2480    -1.3020 cd         1 W1Z      -0.172100
     52 H1          -5.5280     0.9370     1.5940 hn         1 W1Z       0.316500
     53 H2          -7.2740     2.3140    -0.4030 h1         1 W1Z       0.067700
     54 H4          -8.4130     0.6270     1.8850 hc         1 W1Z       0.060200
     55 H5          -9.3310     1.6010     0.7560 hc         1 W1Z       0.060200
     56 H6          -6.8850    -1.3790     1.9910 ha         1 W1Z       0.115000
     57 H7          -6.0020    -3.7180     1.7860 ha         1 W1Z       0.103000
     58 H8          -6.5510    -5.0910    -0.2280 ha         1 W1Z       0.097000
     59 H9          -7.9900    -4.1350    -2.0470 ha         1 W1Z       0.101000
     60 H10         -9.3860    -1.8420    -2.7860 hn         1 W1Z       0.338000
     61 H11         -9.7920     0.5270    -1.7900 h4         1 W1Z       0.213000
@<TRIPOS>BOND
     1     1     2 1   
     2     2     3 1   
     3     2     4 1   
     4     2     5 1   
     5     5     6 1   
     6     5     7 1   
     7     5     8 1   
     8     8     9 1   
     9     8    10 1   
    10     8    11 1   
    11    11    12 1   
    12    11    13 1   
    13    11    14 1   
    14    14    15 1   
    15    14    16 1   
    16    14    17 1   
    17    17    18 1   
    18    17    19 1   
    19    17    20 1   
    20    20    21 1   
    21    20    22 1   
    22    20    23 1   
    23    23    24 1   
    24    23    25 1   
    25    23    26 1   
    26    26    27 1   
    27    26    28 1   
    28    26    29 1   
    29    29    30 1   
    30    29    31 1   
    31    29    32 1   
    32    32    33 1   
    33    32    34 1   
    34    32    35 1   
    35    35    36 2   
    36    35    37 1   
    37    37    38 1   
    38    37    52 1   
    39    38    39 1   
    40    38    42 1   
    41    38    53 1   
    42    39    40 1   
    43    39    41 1   
    44    42    43 1   
    45    42    54 1   
    46    42    55 1   
    47    43    44 1   
    48    43    51 2   
    49    44    45 ar  
    50    44    49 ar  
    51    45    46 ar  
    52    45    56 1   
    53    46    47 ar  
    54    46    57 1   
    55    47    48 ar  
    56    47    58 1   
    57    48    49 ar  
    58    48    59 1   
    59    49    50 1   
    60    50    51 1   
    61    50    60 1   
    62    51    61 1   
@<TRIPOS>SUBSTRUCTURE
     1 W1Z         1 TEMP              0 ****  ****    0 ROOT
