@<TRIPOS>MOLECULE
W1Z
   61    62     1     0     0
SMALL
bcc


@<TRIPOS>ATOM
      1 FBS          9.0450    -0.4920     2.1130 f          1 W1Z      -0.203967
      2 CBR          9.1710    -0.2540     0.8150 c3         1 W1Z       0.647900
      3 FBT         10.2320     0.5200     0.6280 f          1 W1Z      -0.203967
      4 FBU          9.3730    -1.4000     0.1820 f          1 W1Z      -0.203967
      5 CBQ          7.9190     0.4750     0.2590 c3         1 W1Z       0.323600
      6 FBV          7.9060     1.7110     0.7780 f          1 W1Z      -0.181800
      7 FBW          8.0660     0.5660    -1.0720 f          1 W1Z      -0.181800
      8 CAZ          6.5610    -0.2100     0.5930 c3         1 W1Z       0.352600
      9 FBX          6.6780    -1.5310     0.3920 f          1 W1Z      -0.182300
     10 FBY          6.3120    -0.0000     1.8930 f          1 W1Z      -0.182300
     11 CAY          5.3650     0.3020    -0.2750 c3         1 W1Z       0.358600
     12 FBO          5.4540     1.6340    -0.4120 f          1 W1Z      -0.180800
     13 FBP          5.4820    -0.2630    -1.4830 f          1 W1Z      -0.180800
     14 CAX          3.9620    -0.0210     0.3340 c3         1 W1Z       0.356600
     15 FBA          3.9330    -1.3160     0.6840 f          1 W1Z      -0.181800
     16 FBB          3.8190     0.7370     1.4290 f          1 W1Z      -0.181800
     17 CAW          2.7500     0.2640    -0.6080 c3         1 W1Z       0.357600
     18 FBC          2.7180     1.5840    -0.8450 f          1 W1Z      -0.181300
     19 FBD          2.9250    -0.3830    -1.7670 f          1 W1Z      -0.181300
     20 CAV          1.3670    -0.1920    -0.0300 c3         1 W1Z       0.353600
     21 FBE          1.2950    -1.5260    -0.1530 f          1 W1Z      -0.182800
     22 FBF          1.2870     0.1210     1.2700 f          1 W1Z      -0.182800
     23 CAU          0.1450     0.4600    -0.7540 c3         1 W1Z       0.356600
     24 FBG          0.0340     1.7210    -0.3110 f          1 W1Z      -0.180300
     25 FBH          0.3760     0.4860    -2.0750 f          1 W1Z      -0.180300
     26 CAT         -1.2030    -0.2910    -0.5150 c3         1 W1Z       0.345600
     27 FBI         -1.2000    -1.3930    -1.2800 f          1 W1Z      -0.190800
     28 FBJ         -1.2750    -0.6630     0.7720 f          1 W1Z      -0.190800
     29 CAS         -2.4670     0.5590    -0.8470 c3         1 W1Z       0.358600
     30 FBK         -2.6470     1.4420     0.1490 f          1 W1Z      -0.174800
     31 FBL         -2.2500     1.2370    -1.9860 f          1 W1Z      -0.174800
     32 CAR         -3.7860    -0.2380    -1.0060 c3         1 W1Z       0.293600
     33 FBM         -3.7410    -0.9420    -2.1500 f          1 W1Z      -0.212800
     34 FBN         -3.8830    -1.1150     0.0170 f          1 W1Z      -0.212800
     35 CAP         -5.0050     0.7120    -1.0680 c          1 W1Z       0.652100
     36 OAQ         -5.2070     1.2990    -2.1150 o          1 W1Z      -0.576100
     37 N           -5.7310     0.7730     0.0360 ns         1 W1Z      -0.479900
     38 CA          -6.8450     1.6800     0.2050 c3         1 W1Z      -0.047300
     39 C           -6.3940     3.0410     0.8110 c          1 W1Z       0.926600
     40 OXT         -7.3230     3.8160     1.1050 o          1 W1Z      -0.815800
     41 O           -5.1740     3.2360     0.9220 o          1 W1Z      -0.815800
     42 CB          -7.9460     1.0040     1.0290 c3         1 W1Z      -0.011200
     43 CG          -8.4890    -0.2340     0.3920 cc         1 W1Z      -0.110400
     44 CD2         -8.0080    -1.5770     0.5320 ca         1 W1Z      -0.091800
     45 CE3         -6.9880    -2.1710     1.2840 ca         1 W1Z      -0.067000
     46 CZ3         -6.7900    -3.5340     1.1940 ca         1 W1Z      -0.171000
     47 CH2         -7.5930    -4.3280     0.3570 ca         1 W1Z      -0.118000
     48 CZ2         -8.6110    -3.7740    -0.3950 ca         1 W1Z      -0.157000
     49 CE2         -8.8090    -2.3970    -0.2960 ca         1 W1Z      -0.051200
     50 NE1         -9.7230    -1.5890    -0.9040 na         1 W1Z      -0.182400
     51 CD1         -9.5340    -0.3000    -0.4870 cd         1 W1Z      -0.122100
     52 H1          -5.3930     0.3150     0.8680 hn         1 W1Z       0.316500
     53 H2          -7.2520     1.8820    -0.7890 h1         1 W1Z       0.067700
     54 H4          -7.5640     0.7780     2.0310 hc         1 W1Z       0.060200
     55 H5          -8.7430     1.7350     1.1630 hc         1 W1Z       0.060200
     56 H6          -6.3680    -1.5720     1.9410 ha         1 W1Z       0.133000
     57 H7          -6.0030    -4.0030     1.7700 ha         1 W1Z       0.121000
     58 H8          -7.4120    -5.3940     0.3020 ha         1 W1Z       0.115000
     59 H9          -9.2300    -4.3860    -1.0390 ha         1 W1Z       0.119000
     60 H10        -10.4460    -1.8900    -1.5360 hn         1 W1Z       0.287700
     61 H11        -10.1690     0.4910    -0.8530 h4         1 W1Z       0.163000
@<TRIPOS>BOND
     1     1     2 1   
     2     2     3 1   
     3     2     4 1   
     4     2     5 1   
     5     5     6 1   
     6     5     7 1   
     7     5     8 1   
     8     8     9 1   
     9     8    10 1   
    10     8    11 1   
    11    11    12 1   
    12    11    13 1   
    13    11    14 1   
    14    14    15 1   
    15    14    16 1   
    16    14    17 1   
    17    17    18 1   
    18    17    19 1   
    19    17    20 1   
    20    20    21 1   
    21    20    22 1   
    22    20    23 1   
    23    23    24 1   
    24    23    25 1   
    25    23    26 1   
    26    26    27 1   
    27    26    28 1   
    28    26    29 1   
    29    29    30 1   
    30    29    31 1   
    31    29    32 1   
    32    32    33 1   
    33    32    34 1   
    34    32    35 1   
    35    35    36 2   
    36    35    37 1   
    37    37    38 1   
    38    37    52 1   
    39    38    39 1   
    40    38    42 1   
    41    38    53 1   
    42    39    40 1   
    43    39    41 1   
    44    42    43 1   
    45    42    54 1   
    46    42    55 1   
    47    43    44 1   
    48    43    51 2   
    49    44    45 ar  
    50    44    49 ar  
    51    45    46 ar  
    52    45    56 1   
    53    46    47 ar  
    54    46    57 1   
    55    47    48 ar  
    56    47    58 1   
    57    48    49 ar  
    58    48    59 1   
    59    49    50 1   
    60    50    51 1   
    61    50    60 1   
    62    51    61 1   
@<TRIPOS>SUBSTRUCTURE
     1 W1Z         1 TEMP              0 ****  ****    0 ROOT
