@<TRIPOS>MOLECULE
W21
   27    27     1     0     0
SMALL
abcg2


@<TRIPOS>ATOM
      1 C4          -1.1120    10.3500    -7.8650 c5         1 W21      -0.073400
      2 C5          -1.9960     9.1220    -7.6610 c5         1 W21      -0.082900
      3 C6          -1.4610     8.5240    -6.3640 c5         1 W21      -0.082900
      4 C7           0.0550     8.6380    -6.5320 c5         1 W21      -0.073400
      5 C8           0.8940    11.9110    -3.0520 c          1 W21       0.715000
      6 O1           0.2290    10.8750    -2.8510 o          1 W21      -0.728000
      7 O2           1.3530    12.6910    -2.2000 o          1 W21      -0.728000
      8 C1           1.1800    12.2930    -4.5280 c3         1 W21      -0.045300
      9 C            0.6190    13.6790    -4.8390 c3         1 W21      -0.076100
     10 N            0.6320    11.2740    -5.3940 ns         1 W21      -0.464900
     11 C2           0.9900    11.0690    -6.6680 c          1 W21       0.591100
     12 O            1.7910    11.7860    -7.2610 o          1 W21      -0.662100
     13 C3           0.2960     9.9170    -7.3740 c5         1 W21      -0.151700
     14 H1          -1.0930    10.7010    -8.8970 hc         1 W21       0.046950
     15 H2          -1.4910    11.1730    -7.2540 hc         1 W21       0.046950
     16 H3          -3.0580     9.3700    -7.6210 hc         1 W21       0.038700
     17 H4          -1.8540     8.4120    -8.4810 hc         1 W21       0.038700
     18 H5          -1.8030     9.1210    -5.5120 hc         1 W21       0.038700
     19 H6          -1.7890     7.4990    -6.1900 hc         1 W21       0.038700
     20 H7           0.4210     7.7760    -7.0930 hc         1 W21       0.046950
     21 H8           0.5950     8.6340    -5.5840 hc         1 W21       0.046950
     22 H10          2.2670    12.3240    -4.6590 h1         1 W21       0.048700
     23 H13         -0.4630    13.7040    -4.6890 hc         1 W21       0.023700
     24 H14          0.0390    10.6130    -4.9120 hn         1 W21       0.340500
     25 H15          0.9180     9.6720    -8.2350 hc         1 W21       0.059700
     26 H11          1.0690    14.4250    -4.1870 hc         1 W21       0.023700
     27 H12          0.8230    13.9660    -5.8700 hc         1 W21       0.023700
@<TRIPOS>BOND
     1     1     2 1   
     2     1    13 1   
     3     1    14 1   
     4     1    15 1   
     5     2     3 1   
     6     2    16 1   
     7     2    17 1   
     8     3     4 1   
     9     3    18 1   
    10     3    19 1   
    11     4    13 1   
    12     4    20 1   
    13     4    21 1   
    14     5     6 1   
    15     5     7 1   
    16     5     8 1   
    17     8     9 1   
    18     8    10 1   
    19     8    22 1   
    20     9    23 1   
    21     9    26 1   
    22     9    27 1   
    23    10    11 1   
    24    10    24 1   
    25    11    12 2   
    26    11    13 1   
    27    13    25 1   
@<TRIPOS>SUBSTRUCTURE
     1 W21         1 TEMP              0 ****  ****    0 ROOT
