@<TRIPOS>MOLECULE
W21
   27    27     1     0     0
SMALL
No Charge or Current Charge


@<TRIPOS>ATOM
      1 C4          -1.1400    10.3740    -7.8150 c5         1 W21      -0.073400
      2 C5          -1.9620     9.0900    -7.5440 c5         1 W21      -0.082900
      3 C6          -1.3190     8.6150    -6.2200 c5         1 W21      -0.082900
      4 C7           0.1840     8.6390    -6.6050 c5         1 W21      -0.073400
      5 C8           0.7020    11.8690    -3.0630 c          1 W21       0.715000
      6 O1          -0.3860    11.3370    -2.8780 o          1 W21      -0.728000
      7 O2           1.5450    11.9910    -2.1850 o          1 W21      -0.728000
      8 C1           1.0920    12.2770    -4.5190 c3         1 W21      -0.045300
      9 C            0.5670    13.6870    -4.8700 c3         1 W21      -0.076100
     10 N            0.6150    11.2660    -5.4900 ns         1 W21      -0.464900
     11 C2           1.0950    11.0870    -6.7700 c          1 W21       0.591100
     12 O            2.0360    11.7210    -7.2290 o          1 W21      -0.662100
     13 C3           0.3300     9.9340    -7.4870 c5         1 W21      -0.151700
     14 H1          -1.2460    10.7220    -8.8500 hc         1 W21       0.046950
     15 H2          -1.4860    11.1940    -7.1740 hc         1 W21       0.046950
     16 H3          -3.0340     9.2940    -7.4400 hc         1 W21       0.038700
     17 H4          -1.8410     8.3500    -8.3450 hc         1 W21       0.038700
     18 H5          -1.5470     9.2930    -5.3890 hc         1 W21       0.038700
     19 H6          -1.6570     7.6150    -5.9270 hc         1 W21       0.038700
     20 H7           0.4370     7.7500    -7.1950 hc         1 W21       0.046950
     21 H8           0.8450     8.6210    -5.7300 hc         1 W21       0.046950
     22 H10          2.1880    12.2970    -4.5650 h1         1 W21       0.048700
     23 H13         -0.5290    13.7110    -4.8440 hc         1 W21       0.023700
     24 H14         -0.1470    10.6620    -5.2060 hn         1 W21       0.340500
     25 H15          0.8700     9.7070    -8.4120 hc         1 W21       0.059700
     26 H11          0.9440    14.4250    -4.1520 hc         1 W21       0.023700
     27 H12          0.8960    13.9900    -5.8710 hc         1 W21       0.023700
@<TRIPOS>BOND
     1     1     2 1   
     2     1    13 1   
     3     1    14 1   
     4     1    15 1   
     5     2     3 1   
     6     2    16 1   
     7     2    17 1   
     8     3     4 1   
     9     3    18 1   
    10     3    19 1   
    11     4    13 1   
    12     4    20 1   
    13     4    21 1   
    14     5     6 1   
    15     5     7 1   
    16     5     8 1   
    17     8     9 1   
    18     8    10 1   
    19     8    22 1   
    20     9    23 1   
    21     9    26 1   
    22     9    27 1   
    23    10    11 1   
    24    10    24 1   
    25    11    12 2   
    26    11    13 1   
    27    13    25 1   
@<TRIPOS>SUBSTRUCTURE
     1 W21         1 TEMP              0 ****  ****    0 ROOT
