@<TRIPOS>MOLECULE
W22
   30    31     1     0     0
SMALL
No Charge or Current Charge


@<TRIPOS>ATOM
      1 O1          -0.4080    52.8020    11.0470 o          1 W22      -0.577000
      2 C9           0.4890    53.6320    10.9200 c          1 W22       0.530000
      3 C10          0.4510    54.7620     9.8160 c3         1 W22       0.179500
      4 C11         -0.9110    54.8440     9.0810 c3         1 W22      -0.215400
      5 C12         -0.9930    56.1300     8.2590 c          1 W22       0.710000
      6 O3          -1.3890    57.1430     8.8150 o          1 W22      -0.732000
      7 O2          -0.6300    56.0920     7.0930 o          1 W22      -0.732000
      8 N1           1.5980    53.6160    11.7930 n          1 W22      -0.415800
      9 C8           1.7110    52.5930    12.8560 c3         1 W22       0.082300
     10 C7           2.7630    54.4800    11.5290 c3         1 W22       0.164300
     11 C4           3.4850    54.1170    10.2400 ca         1 W22      -0.204300
     12 C5           2.8570    54.2070     8.9740 ca         1 W22       0.367000
     13 N2           1.5320    54.6160     8.7990 nu         1 W22      -0.933200
     14 C3           4.8260    53.6850    10.3170 ca         1 W22      -0.058000
     15 C2           5.5350    53.3530     9.1530 ca         1 W22      -0.196000
     16 C1           4.9150    53.4490     7.9000 ca         1 W22      -0.062000
     17 C6           3.5810    53.8760     7.8170 ca         1 W22      -0.199000
     18 H10          0.5870    55.7060    10.3630 h1         1 W22       0.093700
     19 H111        -0.9810    53.9590     8.4370 hc         1 W22       0.045700
     20 H112        -1.6690    54.8740     9.8720 hc         1 W22       0.045700
     21 H2           1.2450    54.7500     7.8270 hn         1 W22       0.496000
     22 H81C         1.8660    51.6070    12.4010 h1         1 W22       0.034367
     23 H82C         2.5540    52.8160    13.5220 h1         1 W22       0.034367
     24 H83C         0.7900    52.5740    13.4530 h1         1 W22       0.034367
     25 H71C         2.4420    55.5290    11.4870 h1         1 W22       0.052700
     26 H72C         3.4640    54.4120    12.3720 h1         1 W22       0.052700
     27 HA           5.3230    53.6080    11.2820 ha         1 W22       0.091000
     28 H6           3.1060    53.9450     6.8430 ha         1 W22       0.116000
     29 HB           6.5690    53.0220     9.2230 ha         1 W22       0.098000
     30 H1           5.4650    53.1930     6.9970 ha         1 W22       0.097000
@<TRIPOS>BOND
     1     1     2 2   
     2     2     3 1   
     3     2     8 1   
     4     3     4 1   
     5     3    13 1   
     6     3    18 1   
     7     4     5 1   
     8     4    19 1   
     9     4    20 1   
    10     5     6 1   
    11     5     7 1   
    12     8     9 1   
    13     8    10 1   
    14     9    22 1   
    15     9    23 1   
    16     9    24 1   
    17    10    11 1   
    18    10    25 1   
    19    10    26 1   
    20    11    12 ar  
    21    11    14 ar  
    22    12    13 1   
    23    12    17 ar  
    24    13    21 1   
    25    14    15 ar  
    26    14    27 1   
    27    15    16 ar  
    28    15    29 1   
    29    16    17 ar  
    30    16    30 1   
    31    17    28 1   
@<TRIPOS>SUBSTRUCTURE
     1 W22         1 TEMP              0 ****  ****    0 ROOT
