@<TRIPOS>MOLECULE
W22
   30    31     1     0     0
SMALL
abcg2


@<TRIPOS>ATOM
      1 O1          -0.4440    52.8350    10.9800 o          1 W22      -0.577000
      2 C9           0.4730    53.6560    10.9120 c          1 W22       0.530000
      3 C10          0.4970    54.7750     9.8580 c3         1 W22       0.179500
      4 C11         -0.8580    54.9780     9.2020 c3         1 W22      -0.215400
      5 C12         -0.8660    56.1990     8.2560 c          1 W22       0.710000
      6 O3          -0.4890    57.2950     8.7450 o          1 W22      -0.732000
      7 O2          -1.2630    56.0080     7.0790 o          1 W22      -0.732000
      8 N1           1.5500    53.6260    11.7310 n          1 W22      -0.415800
      9 C8           1.7480    52.5200    12.6570 c3         1 W22       0.082300
     10 C7           2.6980    54.5160    11.5130 c3         1 W22       0.164300
     11 C4           3.4560    54.1760    10.2530 ca         1 W22      -0.204300
     12 C5           2.8080    54.1370     9.0000 ca         1 W22       0.367000
     13 N2           1.4810    54.4770     8.8150 nu         1 W22      -0.933200
     14 C3           4.8070    53.8440    10.3290 ca         1 W22      -0.058000
     15 C2           5.5430    53.4800     9.2080 ca         1 W22      -0.196000
     16 C1           4.8980    53.4290     7.9750 ca         1 W22      -0.062000
     17 C6           3.5540    53.7480     7.8730 ca         1 W22      -0.199000
     18 H10          0.7610    55.7160    10.3380 h1         1 W22       0.093700
     19 H111        -1.1520    54.0800     8.6590 hc         1 W22       0.045700
     20 H112        -1.5970    55.1500     9.9870 hc         1 W22       0.045700
     21 H2           1.0750    54.1260     7.9610 hn         1 W22       0.496000
     22 H81C         2.5140    51.8350    12.2840 h1         1 W22       0.034367
     23 H82C         2.0670    52.9080    13.6250 h1         1 W22       0.034367
     24 H83C         0.8140    51.9790    12.7720 h1         1 W22       0.034367
     25 H71C         2.3620    55.5520    11.5160 h1         1 W22       0.052700
     26 H72C         3.3580    54.4020    12.3700 h1         1 W22       0.052700
     27 HA           5.2860    53.8690    11.3010 ha         1 W22       0.091000
     28 H6           3.0570    53.7110     6.9100 ha         1 W22       0.116000
     29 HB           6.5920    53.2280     9.2970 ha         1 W22       0.098000
     30 H1           5.4420    53.1380     7.0850 ha         1 W22       0.097000
@<TRIPOS>BOND
     1     1     2 2   
     2     2     3 1   
     3     2     8 1   
     4     3     4 1   
     5     3    13 1   
     6     3    18 1   
     7     4     5 1   
     8     4    19 1   
     9     4    20 1   
    10     5     6 1   
    11     5     7 1   
    12     8     9 1   
    13     8    10 1   
    14     9    22 1   
    15     9    23 1   
    16     9    24 1   
    17    10    11 1   
    18    10    25 1   
    19    10    26 1   
    20    11    12 ar  
    21    11    14 ar  
    22    12    13 1   
    23    12    17 ar  
    24    13    21 1   
    25    14    15 ar  
    26    14    27 1   
    27    15    16 ar  
    28    15    29 1   
    29    16    17 ar  
    30    16    30 1   
    31    17    28 1   
@<TRIPOS>SUBSTRUCTURE
     1 W22         1 TEMP              0 ****  ****    0 ROOT
