@<TRIPOS>MOLECULE
W23
   28    29     1     0     0
SMALL
No Charge or Current Charge


@<TRIPOS>ATOM
      1 CAA          1.7400    -0.2760    -0.7810 ca         1 W23      -0.019300
      2 CAB          1.4590    -0.7350     0.5270 ca         1 W23      -0.143300
      3 CAC          2.8570     0.5500    -1.0060 ca         1 W23      -0.205000
      4 CAD          0.8140    -0.6310    -1.9500 c6         1 W23      -0.056100
      5 CAE          2.3060    -0.3690     1.5910 ca         1 W23      -0.061000
      6 CAF          0.2550    -1.6460     0.7940 c6         1 W23       0.285100
      7 CAG          3.4210     0.4530     1.3560 ca         1 W23      -0.140000
      8 CAH          3.6950     0.9110     0.0600 ca         1 W23       0.152100
      9 CAI         -0.2050    -1.7410    -1.6060 c6         1 W23       0.231800
     10 CAJ         -1.3780     1.1710     0.6580 c3         1 W23       0.104000
     11 FAK         -0.4420     1.7240    -0.1500 f          1 W23      -0.104333
     12 FAL         -0.8160     0.9920     1.8780 f          1 W23      -0.104333
     13 FAM         -2.3590     2.0930     0.8100 f          1 W23      -0.104333
     14 NAN         -0.7850    -1.5620    -0.2520 n3         1 W23      -0.798500
     15 OAO          4.7760     1.7110    -0.1610 oh         1 W23      -0.529100
     16 OAP         -2.9940    -1.0230     0.9210 o          1 W23      -0.488000
     17 OAQ         -2.5640    -0.1140    -1.3940 o          1 W23      -0.488000
     18 SAR         -2.0710    -0.4050    -0.0400 s6         1 W23       1.214100
     19 HAC          3.0640     0.9110    -2.0110 ha         1 W23       0.115000
     20 HAD          0.2740     0.2700    -2.2690 hc         1 W23       0.066700
     21 HADA         1.4090    -0.9470    -2.8170 hc         1 W23       0.066700
     22 HAE          2.1030    -0.7220     2.6010 ha         1 W23       0.118000
     23 HAF          0.6370    -2.6770     0.8370 h1         1 W23       0.071200
     24 HAFA        -0.1630    -1.4460     1.7920 h1         1 W23       0.071200
     25 HAG          4.0720     0.7340     2.1790 ha         1 W23       0.134000
     26 HAI         -0.9800    -1.7980    -2.3840 h1         1 W23       0.071700
     27 HAIA         0.3270    -2.7040    -1.6420 h1         1 W23       0.071700
     28 HOAO         4.8060     1.9300    -1.1160 ho         1 W23       0.467000
@<TRIPOS>BOND
     1     1     2 ar  
     2     1     3 ar  
     3     1     4 1   
     4     2     5 ar  
     5     2     6 1   
     6     3     8 ar  
     7     3    19 1   
     8     4     9 1   
     9     4    20 1   
    10     4    21 1   
    11     5     7 ar  
    12     5    22 1   
    13     6    14 1   
    14     6    23 1   
    15     6    24 1   
    16     7     8 ar  
    17     7    25 1   
    18     8    15 1   
    19     9    14 1   
    20     9    26 1   
    21     9    27 1   
    22    10    11 1   
    23    10    12 1   
    24    10    13 1   
    25    10    18 1   
    26    14    18 1   
    27    15    28 1   
    28    16    18 2   
    29    17    18 2   
@<TRIPOS>SUBSTRUCTURE
     1 W23         1 TEMP              0 ****  ****    0 ROOT
