@<TRIPOS>MOLECULE
W23
   28    29     1     0     0
SMALL
bcc


@<TRIPOS>ATOM
      1 CAA          1.9070    -0.1710    -0.7090 ca         1 W23      -0.019300
      2 CAB          1.5870    -0.6810     0.5460 ca         1 W23      -0.143300
      3 CAC          3.1390     0.4490    -0.9070 ca         1 W23      -0.223000
      4 CAD          0.9320    -0.2540    -1.8540 c6         1 W23      -0.056100
      5 CAE          2.5150    -0.5630     1.5780 ca         1 W23      -0.079000
      6 CAF          0.2860    -1.3920     0.8120 c6         1 W23       0.285100
      7 CAG          3.7380     0.0490     1.3860 ca         1 W23      -0.158000
      8 CAH          4.0560     0.5620     0.1280 ca         1 W23       0.152100
      9 CAI         -0.1730    -1.2610    -1.6010 c6         1 W23       0.231800
     10 CAJ         -2.1330     1.1510     0.2500 c3         1 W23       0.578700
     11 FAK         -1.8130     1.6940    -0.9160 f          1 W23      -0.225633
     12 FAL         -1.2210     1.4910     1.1490 f          1 W23      -0.225633
     13 FAM         -3.3150     1.6070     0.6320 f          1 W23      -0.225633
     14 NAN         -0.6850    -1.1150    -0.2390 n3         1 W23      -0.798500
     15 OAO          5.2590     1.1510    -0.0240 oh         1 W23      -0.490100
     16 OAP         -2.5670    -1.1430     1.4130 o          1 W23      -0.558800
     17 OAQ         -3.0410    -0.9250    -1.0600 o          1 W23      -0.558800
     18 SAR         -2.1980    -0.6860     0.0910 s6         1 W23       1.244900
     19 HAC          3.3810     0.8430    -1.8900 ha         1 W23       0.133000
     20 HAD          0.5020     0.7340    -2.0370 hc         1 W23       0.066700
     21 HADA         1.4540    -0.5320    -2.7720 hc         1 W23       0.066700
     22 HAE          2.2730    -0.9550     2.5590 ha         1 W23       0.136000
     23 HAF          0.4450    -2.4740     0.8560 h1         1 W23       0.071200
     24 HAFA        -0.1100    -1.0970     1.7820 h1         1 W23       0.071200
     25 HAG          4.4450     0.1380     2.2020 ha         1 W23       0.152000
     26 HAI         -0.9760    -1.1490    -2.3240 h1         1 W23       0.071700
     27 HAIA         0.2040    -2.2820    -1.6970 h1         1 W23       0.071700
     28 HOAO         5.3670     1.4660    -0.9290 ho         1 W23       0.428000
@<TRIPOS>BOND
     1     1     2 ar  
     2     1     3 ar  
     3     1     4 1   
     4     2     5 ar  
     5     2     6 1   
     6     3     8 ar  
     7     3    19 1   
     8     4     9 1   
     9     4    20 1   
    10     4    21 1   
    11     5     7 ar  
    12     5    22 1   
    13     6    14 1   
    14     6    23 1   
    15     6    24 1   
    16     7     8 ar  
    17     7    25 1   
    18     8    15 1   
    19     9    14 1   
    20     9    26 1   
    21     9    27 1   
    22    10    11 1   
    23    10    12 1   
    24    10    13 1   
    25    10    18 1   
    26    14    18 1   
    27    15    28 1   
    28    16    18 2   
    29    17    18 2   
@<TRIPOS>SUBSTRUCTURE
     1 W23         1 TEMP              0 ****  ****    0 ROOT
