@<TRIPOS>MOLECULE
W24
   33    33     1     0     0
SMALL
abcg2


@<TRIPOS>ATOM
      1 N1          24.4770    39.6390   -24.9690 n3         1 W24      -0.758500
      2 C4          26.1780    37.9790   -24.4570 c6         1 W24      -0.079400
      3 C5          25.8200    39.1710   -25.3250 c6         1 W24       0.203800
      4 C6          23.3920    38.6560   -25.1220 c6         1 W24       0.234500
      5 C7          23.1060    38.3030   -26.5780 c3         1 W24      -0.125100
      6 C8          24.9710    42.1080   -24.0500 c3         1 W24      -0.342100
      7 O2          24.7480    41.6030   -26.6140 o          1 W24      -0.542500
      8 S           24.1410    41.2180   -25.3440 s6         1 W24       1.192100
      9 O1          22.7040    41.4140   -25.1870 o          1 W24      -0.542500
     10 C3          25.1300    36.8820   -24.5720 c6         1 W24      -0.058400
     11 C2          23.7520    37.4410   -24.2400 c6         1 W24      -0.138700
     12 C1          22.6640    36.3830   -24.3470 c          1 W24       0.596100
     13 O           22.8250    35.3250   -24.9410 o          1 W24      -0.599100
     14 N           21.5030    36.7020   -23.7560 ns         1 W24      -0.509900
     15 C           20.3550    35.8270   -23.7760 c3         1 W24       0.095300
     16 H1          27.1560    37.6040   -24.7620 hc         1 W24       0.049200
     17 H2          26.2690    38.3070   -23.4180 hc         1 W24       0.049200
     18 H3          25.8830    38.9030   -26.3850 h1         1 W24       0.050700
     19 H4          26.5440    39.9700   -25.1600 h1         1 W24       0.050700
     20 H5          22.4960    39.1100   -24.7000 h1         1 W24       0.078700
     21 H6          22.2600    37.6200   -26.6540 hc         1 W24       0.053700
     22 H7          22.8400    39.2000   -27.1390 hc         1 W24       0.053700
     23 H8          23.9530    37.8350   -27.0780 hc         1 W24       0.053700
     24 H9          24.5680    41.7940   -23.0910 h1         1 W24       0.102700
     25 H10         26.0420    41.9230   -24.0880 h1         1 W24       0.102700
     26 H11         24.7820    43.1680   -24.2110 h1         1 W24       0.102700
     27 H12         25.1390    36.4680   -25.5830 hc         1 W24       0.060700
     28 H13         25.3710    36.0610   -23.8950 hc         1 W24       0.060700
     29 H14         23.7670    37.8080   -23.2060 hc         1 W24       0.064700
     30 H15         21.4380    37.5620   -23.2380 hn         1 W24       0.316500
     31 H16         19.5470    36.3070   -23.2300 h1         1 W24       0.041367
     32 H17         20.0140    35.6340   -24.7930 h1         1 W24       0.041367
     33 H18         20.5690    34.8700   -23.2990 h1         1 W24       0.041367
@<TRIPOS>BOND
     1     1     3 1   
     2     1     4 1   
     3     1     8 1   
     4     2     3 1   
     5     2    10 1   
     6     2    16 1   
     7     2    17 1   
     8     3    18 1   
     9     3    19 1   
    10     4     5 1   
    11     4    11 1   
    12     4    20 1   
    13     5    21 1   
    14     5    22 1   
    15     5    23 1   
    16     6     8 1   
    17     6    24 1   
    18     6    25 1   
    19     6    26 1   
    20     7     8 2   
    21     8     9 2   
    22    10    11 1   
    23    10    27 1   
    24    10    28 1   
    25    11    12 1   
    26    11    29 1   
    27    12    13 2   
    28    12    14 1   
    29    14    15 1   
    30    14    30 1   
    31    15    31 1   
    32    15    32 1   
    33    15    33 1   
@<TRIPOS>SUBSTRUCTURE
     1 W24         1 TEMP              0 ****  ****    0 ROOT
