@<TRIPOS>MOLECULE
W24
   33    33     1     0     0
SMALL
No Charge or Current Charge


@<TRIPOS>ATOM
      1 N1          24.4420    39.7330   -24.9550 n3         1 W24      -0.758500
      2 C4          26.0160    37.9290   -24.2030 c6         1 W24      -0.079400
      3 C5          25.8210    39.1870   -25.0850 c6         1 W24       0.203800
      4 C6          23.3800    38.7560   -25.3380 c6         1 W24       0.234500
      5 C7          23.3740    38.4320   -26.8640 c3         1 W24      -0.125100
      6 C8          25.0620    42.3330   -24.2640 c3         1 W24      -0.342100
      7 O2          24.9280    41.4740   -26.7930 o          1 W24      -0.542500
      8 S           24.2370    41.3530   -25.5060 s6         1 W24       1.192100
      9 O1          22.8050    41.6540   -25.4060 o          1 W24      -0.542500
     10 C3          24.9460    36.8510   -24.4940 c6         1 W24      -0.058400
     11 C2          23.5340    37.4900   -24.4490 c6         1 W24      -0.138700
     12 C1          22.3800    36.4750   -24.5660 c          1 W24       0.596100
     13 O           22.2290    35.7610   -25.5470 o          1 W24      -0.599100
     14 N           21.5350    36.3940   -23.4800 ns         1 W24      -0.509900
     15 C           20.3900    35.4850   -23.3920 c3         1 W24       0.095300
     16 H1          27.0200    37.5140   -24.3610 hc         1 W24       0.049200
     17 H2          25.9630    38.2210   -23.1450 hc         1 W24       0.049200
     18 H3          26.0480    38.9410   -26.1320 h1         1 W24       0.050700
     19 H4          26.5660    39.9320   -24.7700 h1         1 W24       0.050700
     20 H5          22.3920    39.1840   -25.1050 h1         1 W24       0.078700
     21 H6          22.5160    37.8070   -27.1340 hc         1 W24       0.053700
     22 H7          23.2920    39.3400   -27.4710 hc         1 W24       0.053700
     23 H8          24.2790    37.9030   -27.1800 hc         1 W24       0.053700
     24 H9          24.6120    42.0810   -23.2990 h1         1 W24       0.102700
     25 H10         26.1260    42.0810   -24.2870 h1         1 W24       0.102700
     26 H11         24.9000    43.3850   -24.5180 h1         1 W24       0.102700
     27 H12         25.1260    36.3980   -25.4780 hc         1 W24       0.060700
     28 H13         25.0220    36.0400   -23.7560 hc         1 W24       0.060700
     29 H14         23.4350    37.8840   -23.4280 hc         1 W24       0.064700
     30 H15         21.7290    37.0070   -22.6970 hn         1 W24       0.316500
     31 H16         19.8830    35.6250   -22.4280 h1         1 W24       0.041367
     32 H17         19.6840    35.6980   -24.2060 h1         1 W24       0.041367
     33 H18         20.7350    34.4460   -23.4710 h1         1 W24       0.041367
@<TRIPOS>BOND
     1     1     3 1   
     2     1     4 1   
     3     1     8 1   
     4     2     3 1   
     5     2    10 1   
     6     2    16 1   
     7     2    17 1   
     8     3    18 1   
     9     3    19 1   
    10     4     5 1   
    11     4    11 1   
    12     4    20 1   
    13     5    21 1   
    14     5    22 1   
    15     5    23 1   
    16     6     8 1   
    17     6    24 1   
    18     6    25 1   
    19     6    26 1   
    20     7     8 2   
    21     8     9 2   
    22    10    11 1   
    23    10    27 1   
    24    10    28 1   
    25    11    12 1   
    26    11    29 1   
    27    12    13 2   
    28    12    14 1   
    29    14    15 1   
    30    14    30 1   
    31    15    31 1   
    32    15    32 1   
    33    15    33 1   
@<TRIPOS>SUBSTRUCTURE
     1 W24         1 TEMP              0 ****  ****    0 ROOT
