@<TRIPOS>MOLECULE
W25
   18    18     1     0     0
SMALL
abcg2


@<TRIPOS>ATOM
      1 C7          -2.8050    16.0910   -37.3040 c          1 W25       0.696000
      2 O1          -2.3520    16.4990   -38.4050 o          1 W25      -0.705000
      3 C1          -1.8880    13.1110   -33.9650 ca         1 W25      -0.134000
      4 C5          -1.4530    14.9310   -35.5080 ca         1 W25      -0.012300
      5 C6          -1.8300    16.2720   -36.0930 c3         1 W25       0.044600
      6 C4          -0.3700    14.2220   -36.0280 ca         1 W25      -0.111000
      7 C3          -0.0600    12.9790   -35.5150 ca         1 W25       0.114000
      8 C2          -0.8150    12.4210   -34.4940 ca         1 W25       0.088000
      9 F1          -0.4770    11.2010   -34.0170 f          1 W25      -0.193000
     10 F            0.9930    12.2850   -36.0020 f          1 W25      -0.189000
     11 C           -2.1990    14.3680   -34.4740 ca         1 W25      -0.093000
     12 O2          -0.6910    17.0000   -36.5210 oh         1 W25      -0.703000
     13 O           -3.9170    15.5770   -37.0760 o          1 W25      -0.705000
     14 H           -2.3690    16.8450   -35.3310 h1         1 W25       0.045700
     15 H3           0.2360    14.6360   -36.8220 ha         1 W25       0.143000
     16 H1          -3.0340    14.9160   -34.0580 ha         1 W25       0.123000
     17 H4          -0.8570    17.0980   -37.4820 ho         1 W25       0.477000
     18 H2          -2.4600    12.6670   -33.1610 ha         1 W25       0.114000
@<TRIPOS>BOND
     1     1     2 1   
     2     1     5 1   
     3     1    13 1   
     4     3     8 ar  
     5     3    11 ar  
     6     3    18 1   
     7     4     5 1   
     8     4     6 ar  
     9     4    11 ar  
    10     5    12 1   
    11     5    14 1   
    12     6     7 ar  
    13     6    15 1   
    14     7     8 ar  
    15     7    10 1   
    16     8     9 1   
    17    11    16 1   
    18    12    17 1   
@<TRIPOS>SUBSTRUCTURE
     1 W25         1 TEMP              0 ****  ****    0 ROOT
