@<TRIPOS>MOLECULE
W25
   18    18     1     0     0
SMALL
No Charge or Current Charge


@<TRIPOS>ATOM
      1 C7          -2.6480    16.0770   -37.5040 c          1 W25       0.696000
      2 O1          -2.0080    16.4470   -38.4810 o          1 W25      -0.705000
      3 C1          -1.7250    13.1730   -33.7990 ca         1 W25      -0.134000
      4 C5          -1.5460    14.9020   -35.5210 ca         1 W25      -0.012300
      5 C6          -1.9840    16.2520   -36.0910 c3         1 W25       0.044600
      6 C4          -0.5650    14.1300   -36.1780 ca         1 W25      -0.111000
      7 C3          -0.1690    12.8900   -35.6500 ca         1 W25       0.114000
      8 C2          -0.7490    12.4110   -34.4600 ca         1 W25       0.088000
      9 F1          -0.3730    11.2170   -33.9450 f          1 W25      -0.193000
     10 F            0.7740    12.1620   -36.2930 f          1 W25      -0.189000
     11 C           -2.1220    14.4150   -34.3280 ca         1 W25      -0.093000
     12 O2          -0.8580    17.1710   -36.1230 oh         1 W25      -0.703000
     13 O           -3.7740    15.6010   -37.5710 o          1 W25      -0.705000
     14 H           -2.7650    16.6660   -35.4390 h1         1 W25       0.045700
     15 H3          -0.1080    14.4900   -37.0960 ha         1 W25       0.143000
     16 H1          -2.8790    15.0000   -33.8100 ha         1 W25       0.123000
     17 H4          -0.6770    17.3140   -37.0850 ho         1 W25       0.477000
     18 H2          -2.1730    12.8030   -32.8800 ha         1 W25       0.114000
@<TRIPOS>BOND
     1     1     2 1   
     2     1     5 1   
     3     1    13 1   
     4     3     8 ar  
     5     3    11 ar  
     6     3    18 1   
     7     4     5 1   
     8     4     6 ar  
     9     4    11 ar  
    10     5    12 1   
    11     5    14 1   
    12     6     7 ar  
    13     6    15 1   
    14     7     8 ar  
    15     7    10 1   
    16     8     9 1   
    17    11    16 1   
    18    12    17 1   
@<TRIPOS>SUBSTRUCTURE
     1 W25         1 TEMP              0 ****  ****    0 ROOT
