@<TRIPOS>MOLECULE
W26
   34    35     1     0     0
SMALL
No Charge or Current Charge


@<TRIPOS>ATOM
      1 O2          26.5380    15.7450    -6.8020 o          1 W26      -0.497000
      2 O1          22.1390    14.8980    -7.0820 o          1 W26      -0.514000
      3 C1          25.2080    17.7190    -7.3870 c6         1 W26       0.030700
      4 C2          23.8860    17.9460    -8.1610 c6         1 W26      -0.084400
      5 C3          22.7080    17.2090    -7.4810 c6         1 W26      -0.163400
      6 C4          23.0140    15.7460    -7.1440 c          1 W26       0.578000
      7 N1          24.3270    15.4130    -6.9740 ns         1 W26      -0.485500
      8 C5          25.4360    16.2130    -7.0430 c          1 W26       0.553000
      9 N2          26.3530    18.3580    -8.0820 ns         1 W26      -0.495900
     10 C6          27.5330    18.7530    -7.4950 c          1 W26       0.632700
     11 C7          28.6090    19.3140    -8.4030 ca         1 W26      -0.202600
     12 C8          29.9490    19.1280    -7.9910 ca         1 W26      -0.011000
     13 C9          31.0180    19.5870    -8.7750 ca         1 W26      -0.197000
     14 C10         30.7690    20.2480    -9.9770 ca         1 W26       0.328000
     15 C11         29.4520    20.4650   -10.3920 ca         1 W26      -0.200000
     16 C12         28.3600    20.0170    -9.6200 ca         1 W26      -0.001300
     17 C13         26.9610    20.3810   -10.1190 c3         1 W26      -0.055800
     18 N3          31.8100    20.6930   -10.7410 nv         1 W26      -1.082000
     19 O3          27.6960    18.6640    -6.2860 o          1 W26      -0.593100
     20 H1          25.0980    18.2050    -6.4060 h1         1 W26       0.107700
     21 H2          23.9960    17.5750    -9.1900 hc         1 W26       0.061200
     22 H5          21.7680    17.2760    -8.0450 hc         1 W26       0.083200
     23 H4          22.5310    17.7020    -6.5160 hc         1 W26       0.083200
     24 H6          24.5030    14.4430    -6.7570 hn         1 W26       0.330500
     25 H7          26.3170    18.4380    -9.0900 hn         1 W26       0.321500
     26 H8          30.1680    18.6040    -7.0620 ha         1 W26       0.132000
     27 H9          32.0390    19.4220    -8.4410 ha         1 W26       0.118000
     28 H10         29.2720    21.0010   -11.3200 ha         1 W26       0.111000
     29 H11         26.4750    19.5280   -10.6070 hc         1 W26       0.044367
     30 H12         26.3190    20.7330    -9.3020 hc         1 W26       0.044367
     31 H13         26.9950    21.1930   -10.8550 hc         1 W26       0.044367
     32 H14         32.7580    20.3940   -10.5200 hn         1 W26       0.459000
     33 H15         31.6340    21.0280   -11.6860 hn         1 W26       0.459000
     34 H3          23.6690    19.0210    -8.2360 hc         1 W26       0.061200
@<TRIPOS>BOND
     1     1     8 2   
     2     2     6 2   
     3     3     4 1   
     4     3     8 1   
     5     3     9 1   
     6     3    20 1   
     7     4     5 1   
     8     4    21 1   
     9     4    34 1   
    10     5     6 1   
    11     5    22 1   
    12     5    23 1   
    13     6     7 1   
    14     7     8 1   
    15     7    24 1   
    16     9    10 1   
    17     9    25 1   
    18    10    11 1   
    19    10    19 2   
    20    11    12 ar  
    21    11    16 ar  
    22    12    13 ar  
    23    12    26 1   
    24    13    14 ar  
    25    13    27 1   
    26    14    15 ar  
    27    14    18 1   
    28    15    16 ar  
    29    15    28 1   
    30    16    17 1   
    31    17    29 1   
    32    17    30 1   
    33    17    31 1   
    34    18    32 1   
    35    18    33 1   
@<TRIPOS>SUBSTRUCTURE
     1 W26         1 TEMP              0 ****  ****    0 ROOT
