@<TRIPOS>MOLECULE
W26
   34    35     1     0     0
SMALL
abcg2


@<TRIPOS>ATOM
      1 O2          26.5890    15.6670    -7.1600 o          1 W26      -0.497000
      2 O1          22.1560    15.1010    -6.6870 o          1 W26      -0.514000
      3 C1          25.2720    17.6570    -7.4930 c6         1 W26       0.030700
      4 C2          23.9610    17.8510    -8.2430 c6         1 W26      -0.084400
      5 C3          22.8180    17.2850    -7.4180 c6         1 W26      -0.163400
      6 C4          23.0460    15.8630    -6.9850 c          1 W26       0.578000
      7 N1          24.3620    15.4490    -6.9260 ns         1 W26      -0.485500
      8 C5          25.4980    16.1820    -7.1910 c          1 W26       0.553000
      9 N2          26.3890    18.2160    -8.1930 ns         1 W26      -0.495900
     10 C6          27.4360    18.7950    -7.5650 c          1 W26       0.632700
     11 C7          28.5180    19.3260    -8.4390 ca         1 W26      -0.202600
     12 C8          29.8280    19.0820    -8.0200 ca         1 W26      -0.011000
     13 C9          30.9200    19.5180    -8.7390 ca         1 W26      -0.197000
     14 C10         30.7320    20.2620    -9.9120 ca         1 W26       0.328000
     15 C11         29.4190    20.5370   -10.3110 ca         1 W26      -0.200000
     16 C12         28.3130    20.0810    -9.6050 ca         1 W26      -0.001300
     17 C13         26.9490    20.4590   -10.1210 c3         1 W26      -0.055800
     18 N3          31.7990    20.7590   -10.6110 nv         1 W26      -1.082000
     19 O3          27.5070    18.8630    -6.3450 o          1 W26      -0.593100
     20 H1          25.1920    18.1600    -6.5230 h1         1 W26       0.107700
     21 H2          24.0080    17.3620    -9.2200 hc         1 W26       0.061200
     22 H5          21.8730    17.3280    -7.9570 hc         1 W26       0.083200
     23 H4          22.6870    17.8810    -6.5080 hc         1 W26       0.083200
     24 H6          24.5110    14.4810    -6.6590 hn         1 W26       0.330500
     25 H7          26.4510    18.0330    -9.1830 hn         1 W26       0.321500
     26 H8          29.9970    18.5160    -7.1130 ha         1 W26       0.132000
     27 H9          31.9220    19.2930    -8.3950 ha         1 W26       0.118000
     28 H10         29.2590    21.1390   -11.1990 ha         1 W26       0.111000
     29 H11         26.5110    19.6640   -10.7280 hc         1 W26       0.044367
     30 H12         26.2460    20.6800    -9.3200 hc         1 W26       0.044367
     31 H13         27.0170    21.3390   -10.7580 hc         1 W26       0.044367
     32 H14         32.6870    20.3060   -10.4670 hn         1 W26       0.459000
     33 H15         31.6380    21.0120   -11.5720 hn         1 W26       0.459000
     34 H3          23.8010    18.9140    -8.4190 hc         1 W26       0.061200
@<TRIPOS>BOND
     1     1     8 2   
     2     2     6 2   
     3     3     4 1   
     4     3     8 1   
     5     3     9 1   
     6     3    20 1   
     7     4     5 1   
     8     4    21 1   
     9     4    34 1   
    10     5     6 1   
    11     5    22 1   
    12     5    23 1   
    13     6     7 1   
    14     7     8 1   
    15     7    24 1   
    16     9    10 1   
    17     9    25 1   
    18    10    11 1   
    19    10    19 2   
    20    11    12 ar  
    21    11    16 ar  
    22    12    13 ar  
    23    12    26 1   
    24    13    14 ar  
    25    13    27 1   
    26    14    15 ar  
    27    14    18 1   
    28    15    16 ar  
    29    15    28 1   
    30    16    17 1   
    31    17    29 1   
    32    17    30 1   
    33    17    31 1   
    34    18    32 1   
    35    18    33 1   
@<TRIPOS>SUBSTRUCTURE
     1 W26         1 TEMP              0 ****  ****    0 ROOT
