@<TRIPOS>MOLECULE
W27
   29    31     1     0     0
SMALL
abcg2


@<TRIPOS>ATOM
      1 N1          -0.9370    14.1330     2.0120 nb         1 W27      -0.676000
      2 C4          -2.1000    14.2530    -0.0730 ca         1 W27      -0.147300
      3 C5          -0.8930    14.2200    -0.7550 ca         1 W27      -0.058000
      4 C6           0.2890    14.1420    -0.0370 ca         1 W27      -0.166000
      5 C7           0.2110    14.1020     1.3470 ca         1 W27       0.342900
      6 C8          -3.4280    14.3730    -0.7820 c5         1 W27       0.152000
      7 O           -4.5120    11.7940    -1.1680 o          1 W27      -0.601100
      8 C11         -5.8380    11.8930     0.8220 c3         1 W27      -0.176100
      9 N           -4.4370    13.7040     0.0180 n          1 W27      -0.411800
     10 C9          -3.9250    15.8230    -0.7420 c5         1 W27      -0.081400
     11 C1          -4.5630    14.5130     1.2240 c5         1 W27       0.105700
     12 C3          -2.0730    14.2100     1.3240 ca         1 W27       0.361300
     13 C2          -3.3570    14.2170     2.1150 c6         1 W27      -0.149700
     14 H1          -0.8790    14.2510    -1.8380 ha         1 W27       0.121000
     15 H2           1.2490    14.1080    -0.5340 ha         1 W27       0.125000
     16 H3           1.1130    14.0400     1.9440 h4         1 W27       0.019100
     17 H4          -3.3750    13.9650    -1.7890 h1         1 W27       0.098700
     18 H5          -3.9540    16.6070     1.3130 hc         1 W27       0.053200
     19 H6          -5.5440    16.3610     0.6180 hc         1 W27       0.053200
     20 H7          -6.2240    10.9400     0.4720 hc         1 W27       0.060367
     21 H8          -5.3500    11.7280     1.7840 hc         1 W27       0.060367
     22 H9          -6.6760    12.5680     0.9930 hc         1 W27       0.060367
     23 H10         -3.1240    16.5380    -0.9280 hc         1 W27       0.056200
     24 H11         -4.6840    15.9680    -1.5120 hc         1 W27       0.056200
     25 H12         -5.4890    14.3010     1.7540 h1         1 W27       0.070700
     26 H13         -3.2910    14.9520     2.9210 hc         1 W27       0.068700
     27 H14         -3.4770    13.2420     2.5990 hc         1 W27       0.068700
     28 C10         -4.5360    15.9510     0.6670 c5         1 W27      -0.085400
     29 C           -4.8680    12.4460    -0.1940 c          1 W27       0.616100
@<TRIPOS>BOND
     1     1     5 ar  
     2     1    12 ar  
     3     2     3 ar  
     4     2     6 1   
     5     2    12 ar  
     6     3     4 ar  
     7     3    14 1   
     8     4     5 ar  
     9     4    15 1   
    10     5    16 1   
    11     6     9 1   
    12     6    10 1   
    13     6    17 1   
    14     7    29 2   
    15     8    20 1   
    16     8    21 1   
    17     8    22 1   
    18     8    29 1   
    19     9    11 1   
    20     9    29 1   
    21    10    23 1   
    22    10    24 1   
    23    10    28 1   
    24    11    13 1   
    25    11    25 1   
    26    11    28 1   
    27    12    13 1   
    28    13    26 1   
    29    13    27 1   
    30    18    28 1   
    31    19    28 1   
@<TRIPOS>SUBSTRUCTURE
     1 W27         1 TEMP              0 ****  ****    0 ROOT
