@<TRIPOS>MOLECULE
W27
   29    31     1     0     0
SMALL
No Charge or Current Charge


@<TRIPOS>ATOM
      1 N1          -0.9360    14.0820     1.9890 nb         1 W27      -0.676000
      2 C4          -2.1340    14.2610    -0.1240 ca         1 W27      -0.147300
      3 C5          -0.9320    14.1210    -0.8390 ca         1 W27      -0.058000
      4 C6           0.2600    13.9640    -0.1140 ca         1 W27      -0.166000
      5 C7           0.2150    13.9510     1.2900 ca         1 W27       0.342900
      6 C8          -3.4680    14.4660    -0.8410 c5         1 W27       0.152000
      7 O           -4.2130    11.7430    -1.0090 o          1 W27      -0.601100
      8 C11         -5.7460    11.7780     0.8310 c3         1 W27      -0.176100
      9 N           -4.4780    13.7910    -0.0100 n          1 W27      -0.411800
     10 C9          -3.8240    15.9690    -0.6170 c5         1 W27      -0.081400
     11 C1          -4.6280    14.5440     1.2440 c5         1 W27       0.105700
     12 C3          -2.0820    14.2370     1.2880 ca         1 W27       0.361300
     13 C2          -3.3620    14.3370     2.1210 c6         1 W27      -0.149700
     14 H1          -0.9210    14.1400    -1.9270 ha         1 W27       0.121000
     15 H2           1.2120    13.8540    -0.6270 ha         1 W27       0.125000
     16 H3           1.1270    13.8300     1.8740 h4         1 W27       0.019100
     17 H4          -3.4610    14.1550    -1.8950 h1         1 W27       0.098700
     18 H5          -4.4660    16.7560     1.3670 hc         1 W27       0.053200
     19 H6          -5.7840    16.1790     0.3580 hc         1 W27       0.053200
     20 H7          -5.9760    10.7390     0.5730 hc         1 W27       0.060367
     21 H8          -5.3680    11.8540     1.8560 hc         1 W27       0.060367
     22 H9          -6.6490    12.3990     0.8620 hc         1 W27       0.060367
     23 H10         -2.9350    16.5980    -0.4890 hc         1 W27       0.056200
     24 H11         -4.3640    16.3710    -1.4820 hc         1 W27       0.056200
     25 H12         -5.5280    14.2830     1.8170 h1         1 W27       0.070700
     26 H13         -3.2760    15.1460     2.8590 hc         1 W27       0.068700
     27 H14         -3.4760    13.4080     2.6950 hc         1 W27       0.068700
     28 C10         -4.7460    15.9770     0.6480 c5         1 W27      -0.085400
     29 C           -4.7330    12.4090    -0.1240 c          1 W27       0.616100
@<TRIPOS>BOND
     1     1     5 ar  
     2     1    12 ar  
     3     2     3 ar  
     4     2     6 1   
     5     2    12 ar  
     6     3     4 ar  
     7     3    14 1   
     8     4     5 ar  
     9     4    15 1   
    10     5    16 1   
    11     6     9 1   
    12     6    10 1   
    13     6    17 1   
    14     7    29 2   
    15     8    20 1   
    16     8    21 1   
    17     8    22 1   
    18     8    29 1   
    19     9    11 1   
    20     9    29 1   
    21    10    23 1   
    22    10    24 1   
    23    10    28 1   
    24    11    13 1   
    25    11    25 1   
    26    11    28 1   
    27    12    13 1   
    28    13    26 1   
    29    13    27 1   
    30    18    28 1   
    31    19    28 1   
@<TRIPOS>SUBSTRUCTURE
     1 W27         1 TEMP              0 ****  ****    0 ROOT
