@<TRIPOS>MOLECULE
W28
   60    62     1     0     0
SMALL
No Charge or Current Charge


@<TRIPOS>ATOM
      1 C01        -17.1560     1.6850    17.1040 c3         1 W28      -0.091600
      2 C02        -18.7010     1.5870    17.1020 c3         1 W28      -0.058700
      3 C03        -19.1780     0.5500    18.1440 c3         1 W28      -0.091600
      4 C04        -19.2770     1.2620    15.6950 c3         1 W28      -0.088400
      5 C05        -19.0670     2.3520    14.6030 c3         1 W28       0.038700
      6 N06        -19.8290     3.5800    14.9280 ns         1 W28      -0.474900
      7 C07        -19.3070     4.7240    15.4890 c          1 W28       0.635300
      8 O08        -18.1210     4.8390    15.7630 o          1 W28      -0.628100
      9 C09        -20.3020     5.8050    15.7260 cc         1 W28      -0.139300
     10 C10        -21.6710     5.7660    15.4500 cd         1 W28      -0.194200
     11 C11        -22.2950     7.0090    15.8230 ca         1 W28      -0.114800
     12 C12        -23.6230     7.4470    15.7430 ca         1 W28      -0.053000
     13 C13        -23.9060     8.7500    16.2060 ca         1 W28      -0.142000
     14 C14        -22.8720     9.5680    16.7270 ca         1 W28      -0.082000
     15 C15        -21.5450     9.0890    16.7900 ca         1 W28      -0.129000
     16 C16        -21.2950     7.7920    16.3240 ca         1 W28      -0.034200
     17 N17        -20.0990     7.0930    16.2750 na         1 W28      -0.185700
     18 C18        -19.4900     1.8240    13.2010 c          1 W28       0.592100
     19 O19        -20.4970     2.2040    12.6160 o          1 W28      -0.598100
     20 N20        -18.6360     0.8910    12.6490 ns         1 W28      -0.502900
     21 C21        -18.8300     0.2520    11.3410 c3         1 W28       0.105700
     22 C22        -17.4590    -0.0870    10.6960 c3         1 W28      -0.068400
     23 C23        -16.4830     1.1170    10.5490 c5         1 W28      -0.156700
     24 C24        -17.0200     2.3030     9.6990 c5         1 W28      -0.090400
     25 C25        -15.7020     3.0250     9.3110 c5         1 W28       0.101000
     26 N26        -14.8120     1.8800     9.1330 ns         1 W28      -0.515900
     27 C27        -15.1690     0.7640     9.8410 c          1 W28       0.564000
     28 O28        -14.6250    -0.3190     9.7000 o          1 W28      -0.563000
     29 C29        -19.7700    -0.9790    11.4660 c3         1 W28       0.149600
     30 O30        -20.0860    -1.5270    10.1780 oh         1 W28      -0.655000
     31 H1         -16.7850     1.9060    18.1120 hc         1 W28       0.036367
     32 H2         -16.7050     0.7410    16.7740 hc         1 W28       0.036367
     33 H3         -16.8040     2.4830    16.4410 hc         1 W28       0.036367
     34 H4         -19.0970     2.5590    17.4200 hc         1 W28       0.045700
     35 H5         -18.8070     0.8050    19.1440 hc         1 W28       0.036367
     36 H6         -20.2730     0.5200    18.1910 hc         1 W28       0.036367
     37 H7         -18.8180    -0.4550    17.8910 hc         1 W28       0.036367
     38 H8         -20.3550     1.0730    15.7840 hc         1 W28       0.057700
     39 H9         -18.8330     0.3190    15.3530 hc         1 W28       0.057700
     40 H10        -18.0010     2.5970    14.5290 h1         1 W28       0.071700
     41 H11        -20.8120     3.6030    14.6930 hn         1 W28       0.332500
     42 H12        -22.2070     4.9260    15.0160 ha         1 W28       0.201000
     43 H13        -24.4050     6.8070    15.3410 ha         1 W28       0.115000
     44 H14        -24.9250     9.1290    16.1620 ha         1 W28       0.113000
     45 H15        -23.1020    10.5710    17.0810 ha         1 W28       0.112000
     46 H16        -20.7440     9.7090    17.1890 ha         1 W28       0.117000
     47 H17        -19.2030     7.4540    16.5900 hn         1 W28       0.370000
     48 H18        -17.8270     0.6280    13.1990 hn         1 W28       0.313500
     49 H19        -19.3340     0.9740    10.6840 h1         1 W28       0.094700
     50 H20        -17.6360    -0.5240     9.7060 hc         1 W28       0.064700
     51 H21        -16.9780    -0.8730    11.2910 hc         1 W28       0.064700
     52 H22        -16.2120     1.5010    11.5390 hc         1 W28       0.090700
     53 H23        -17.7120     2.9520    10.2480 hc         1 W28       0.065200
     54 H24        -17.5430     1.9460     8.8030 hc         1 W28       0.065200
     55 H25        -15.3490     3.6810    10.1190 h1         1 W28       0.042200
     56 H26        -15.8130     3.6250     8.3980 h1         1 W28       0.042200
     57 H27        -14.0060     1.8370     8.5200 hn         1 W28       0.323500
     58 H28        -20.6940    -0.6700    11.9740 h1         1 W28       0.021200
     59 H29        -19.2860    -1.7390    12.0940 h1         1 W28       0.021200
     60 H30        -20.6860    -2.2920    10.3290 ho         1 W28       0.448000
@<TRIPOS>BOND
     1     1     2 1   
     2     1    31 1   
     3     1    32 1   
     4     1    33 1   
     5     2     3 1   
     6     2     4 1   
     7     2    34 1   
     8     3    35 1   
     9     3    36 1   
    10     3    37 1   
    11     4     5 1   
    12     4    38 1   
    13     4    39 1   
    14     5     6 1   
    15     5    18 1   
    16     5    40 1   
    17     6     7 1   
    18     6    41 1   
    19     7     8 2   
    20     7     9 1   
    21     9    10 2   
    22     9    17 1   
    23    10    11 1   
    24    10    42 1   
    25    11    12 ar  
    26    11    16 ar  
    27    12    13 ar  
    28    12    43 1   
    29    13    14 ar  
    30    13    44 1   
    31    14    15 ar  
    32    14    45 1   
    33    15    16 ar  
    34    15    46 1   
    35    16    17 1   
    36    17    47 1   
    37    18    19 2   
    38    18    20 1   
    39    20    21 1   
    40    20    48 1   
    41    21    22 1   
    42    21    29 1   
    43    21    49 1   
    44    22    23 1   
    45    22    50 1   
    46    22    51 1   
    47    23    24 1   
    48    23    27 1   
    49    23    52 1   
    50    24    25 1   
    51    24    53 1   
    52    24    54 1   
    53    25    26 1   
    54    25    55 1   
    55    25    56 1   
    56    26    27 1   
    57    26    57 1   
    58    27    28 2   
    59    29    30 1   
    60    29    58 1   
    61    29    59 1   
    62    30    60 1   
@<TRIPOS>SUBSTRUCTURE
     1 W28         1 TEMP              0 ****  ****    0 ROOT
