@<TRIPOS>MOLECULE
W28
   60    62     1     0     0
SMALL
abcg2


@<TRIPOS>ATOM
      1 C01        -18.3790     0.8610    17.8560 c3         1 W28      -0.091600
      2 C02        -19.8180     0.7650    17.3600 c3         1 W28      -0.058700
      3 C03        -20.5470    -0.3860    18.0450 c3         1 W28      -0.091600
      4 C04        -19.8980     0.5740    15.8430 c3         1 W28      -0.088400
      5 C05        -19.2150     1.6540    15.0020 c3         1 W28       0.038700
      6 N06        -19.8140     2.9400    15.2500 ns         1 W28      -0.474900
      7 C07        -19.3370     4.0500    14.6650 c          1 W28       0.635300
      8 O08        -18.3720     4.0380    13.9090 o          1 W28      -0.628100
      9 C09        -20.0160     5.3160    14.9880 cc         1 W28      -0.139300
     10 C10        -21.0090     5.6280    15.8800 cd         1 W28      -0.194200
     11 C11        -21.2330     7.0300    15.7720 ca         1 W28      -0.114800
     12 C12        -22.0960     7.9310    16.4110 ca         1 W28      -0.053000
     13 C13        -22.0440     9.2620    16.0590 ca         1 W28      -0.142000
     14 C14        -21.1430     9.7200    15.0770 ca         1 W28      -0.082000
     15 C15        -20.2820     8.8600    14.4310 ca         1 W28      -0.129000
     16 C16        -20.3360     7.5110    14.7900 ca         1 W28      -0.034200
     17 N17        -19.6180     6.4520    14.3370 na         1 W28      -0.185700
     18 C18        -19.3500     1.2780    13.5240 c          1 W28       0.592100
     19 O19        -20.3770     1.5060    12.9070 o          1 W28      -0.598100
     20 N20        -18.2840     0.6390    13.0160 ns         1 W28      -0.502900
     21 C21        -18.1950     0.1360    11.6610 c3         1 W28       0.105700
     22 C22        -17.0220     0.7740    10.9190 c3         1 W28      -0.068400
     23 C23        -17.0840     2.2930    10.9010 c5         1 W28      -0.156700
     24 C24        -18.3050     2.9070    10.2160 c5         1 W28      -0.090400
     25 C25        -17.7990     4.2650     9.7290 c5         1 W28       0.101000
     26 N26        -16.3920     4.0050     9.5100 ns         1 W28      -0.515900
     27 C27        -15.9170     2.9280    10.1600 c          1 W28       0.564000
     28 O28        -14.7600     2.5420    10.1650 o          1 W28      -0.563000
     29 C29        -18.0940    -1.3850    11.7190 c3         1 W28       0.149600
     30 O30        -18.0820    -1.8930    10.4070 oh         1 W28      -0.655000
     31 H1         -18.3500     0.9260    18.9440 hc         1 W28       0.036367
     32 H2         -17.8050    -0.0210    17.5610 hc         1 W28       0.036367
     33 H3         -17.8640     1.7410    17.4670 hc         1 W28       0.036367
     34 H4         -20.3340     1.6930    17.6310 hc         1 W28       0.045700
     35 H5         -20.5510    -0.2600    19.1280 hc         1 W28       0.036367
     36 H6         -21.5850    -0.4560    17.7140 hc         1 W28       0.036367
     37 H7         -20.0630    -1.3400    17.8230 hc         1 W28       0.036367
     38 H8         -20.9470     0.5040    15.5390 hc         1 W28       0.057700
     39 H9         -19.4370    -0.3850    15.5860 hc         1 W28       0.057700
     40 H10        -18.1540     1.6990    15.2670 h1         1 W28       0.071700
     41 H11        -20.6830     2.9770    15.7590 hn         1 W28       0.332500
     42 H12        -21.5180     4.9520    16.5490 ha         1 W28       0.201000
     43 H13        -22.7900     7.5850    17.1670 ha         1 W28       0.115000
     44 H14        -22.7020     9.9720    16.5420 ha         1 W28       0.113000
     45 H15        -21.1270    10.7730    14.8260 ha         1 W28       0.112000
     46 H16        -19.5910     9.2150    13.6770 ha         1 W28       0.117000
     47 H17        -18.8930     6.4800    13.6370 hn         1 W28       0.370000
     48 H18        -17.4660     0.5390    13.5990 hn         1 W28       0.313500
     49 H19        -19.1280     0.4030    11.1620 h1         1 W28       0.094700
     50 H20        -17.0110     0.3990     9.8930 hc         1 W28       0.064700
     51 H21        -16.0840     0.4540    11.3830 hc         1 W28       0.064700
     52 H22        -17.0280     2.6700    11.9300 hc         1 W28       0.090700
     53 H23        -19.1660     3.0000    10.8730 hc         1 W28       0.065200
     54 H24        -18.5990     2.2930     9.3600 hc         1 W28       0.065200
     55 H25        -17.9460     5.0430    10.4850 h1         1 W28       0.042200
     56 H26        -18.2860     4.5930     8.8120 h1         1 W28       0.042200
     57 H27        -15.7830     4.6600     9.0450 hn         1 W28       0.323500
     58 H28        -18.9470    -1.7670    12.2960 h1         1 W28       0.021200
     59 H29        -17.1830    -1.6590    12.2700 h1         1 W28       0.021200
     60 H30        -17.9380    -2.8430    10.4510 ho         1 W28       0.448000
@<TRIPOS>BOND
     1     1     2 1   
     2     1    31 1   
     3     1    32 1   
     4     1    33 1   
     5     2     3 1   
     6     2     4 1   
     7     2    34 1   
     8     3    35 1   
     9     3    36 1   
    10     3    37 1   
    11     4     5 1   
    12     4    38 1   
    13     4    39 1   
    14     5     6 1   
    15     5    18 1   
    16     5    40 1   
    17     6     7 1   
    18     6    41 1   
    19     7     8 2   
    20     7     9 1   
    21     9    10 2   
    22     9    17 1   
    23    10    11 1   
    24    10    42 1   
    25    11    12 ar  
    26    11    16 ar  
    27    12    13 ar  
    28    12    43 1   
    29    13    14 ar  
    30    13    44 1   
    31    14    15 ar  
    32    14    45 1   
    33    15    16 ar  
    34    15    46 1   
    35    16    17 1   
    36    17    47 1   
    37    18    19 2   
    38    18    20 1   
    39    20    21 1   
    40    20    48 1   
    41    21    22 1   
    42    21    29 1   
    43    21    49 1   
    44    22    23 1   
    45    22    50 1   
    46    22    51 1   
    47    23    24 1   
    48    23    27 1   
    49    23    52 1   
    50    24    25 1   
    51    24    53 1   
    52    24    54 1   
    53    25    26 1   
    54    25    55 1   
    55    25    56 1   
    56    26    27 1   
    57    26    57 1   
    58    27    28 2   
    59    29    30 1   
    60    29    58 1   
    61    29    59 1   
    62    30    60 1   
@<TRIPOS>SUBSTRUCTURE
     1 W28         1 TEMP              0 ****  ****    0 ROOT
