@<TRIPOS>MOLECULE
W29
   27    28     1     0     0
SMALL
No Charge or Current Charge


@<TRIPOS>ATOM
      1 O2          -4.3170    -0.1070     0.3890 oh         1 W29      -0.558100
      2 C10         -2.9500    -0.0160     0.3820 ca         1 W29       0.042100
      3 C05         -2.2970     0.7380    -0.6150 ca         1 W29       0.123100
      4 O1          -3.0390     1.3720    -1.5680 oh         1 W29      -0.533100
      5 C03         -0.8970     0.8360    -0.6250 ca         1 W29      -0.115000
      6 C06         -2.1940    -0.6680     1.3700 ca         1 W29      -0.156000
      7 C04         -0.7900    -0.5690     1.3570 ca         1 W29      -0.096000
      8 C01         -0.1350     0.1740     0.3560 ca         1 W29      -0.002000
      9 C02          1.3190     0.2870     0.3430 cc         1 W29      -0.159000
     10 S            2.2020     1.7940     0.5390 ss         1 W29       0.205000
     11 C07          3.7210     0.9390     0.3100 cc         1 W29      -0.243000
     12 C09          3.5060    -0.3970     0.0710 cd         1 W29      -0.131000
     13 C08          2.1360    -0.7910     0.0760 cd         1 W29      -0.086300
     14 C11          1.6960    -2.2110    -0.2050 c3         1 W29      -0.012100
     15 C12          1.1970    -2.3980    -1.6500 c3         1 W29      -0.086100
     16 HO2         -4.5950    -0.6660     1.1480 ho         1 W29       0.474000
     17 HO1         -3.9770     1.1630    -1.3590 ho         1 W29       0.482000
     18 H03         -0.4020     1.4170    -1.3980 ha         1 W29       0.136000
     19 H06         -2.6830    -1.2490     2.1490 ha         1 W29       0.114000
     20 H04         -0.2080    -1.0680     2.1280 ha         1 W29       0.122000
     21 H07          4.6530     1.4860     0.3570 h4         1 W29       0.150000
     22 H09          4.3180    -1.0940    -0.1160 ha         1 W29       0.132000
     23 H11          2.5320    -2.9000    -0.0350 hc         1 W29       0.045200
     24 H11A         0.9080    -2.5210     0.4900 hc         1 W29       0.045200
     25 H12          1.9830    -2.1330    -2.3670 hc         1 W29       0.035700
     26 H12A         0.9090    -3.4410    -1.8240 hc         1 W29       0.035700
     27 H12B         0.3240    -1.7640    -1.8450 hc         1 W29       0.035700
@<TRIPOS>BOND
     1     1     2 1   
     2     1    16 1   
     3     2     3 ar  
     4     2     6 ar  
     5     3     4 1   
     6     3     5 ar  
     7     4    17 1   
     8     5     8 ar  
     9     5    18 1   
    10     6     7 ar  
    11     6    19 1   
    12     7     8 ar  
    13     7    20 1   
    14     8     9 1   
    15     9    10 1   
    16     9    13 2   
    17    10    11 1   
    18    11    12 2   
    19    11    21 1   
    20    12    13 1   
    21    12    22 1   
    22    13    14 1   
    23    14    15 1   
    24    14    23 1   
    25    14    24 1   
    26    15    25 1   
    27    15    26 1   
    28    15    27 1   
@<TRIPOS>SUBSTRUCTURE
     1 W29         1 TEMP              0 ****  ****    0 ROOT
