@<TRIPOS>MOLECULE
W29
   27    28     1     0     0
SMALL
abcg2


@<TRIPOS>ATOM
      1 O2          -4.3760     0.0360     0.4320 oh         1 W29      -0.558100
      2 C10         -3.0230     0.0340     0.4540 ca         1 W29       0.042100
      3 C05         -2.3880     0.8650    -0.4790 ca         1 W29       0.123100
      4 O1          -3.0930     1.6330    -1.3350 oh         1 W29      -0.533100
      5 C03         -1.0040     0.8930    -0.5360 ca         1 W29      -0.115000
      6 C06         -2.2590    -0.7340     1.3180 ca         1 W29      -0.156000
      7 C04         -0.8720    -0.6890     1.2640 ca         1 W29      -0.096000
      8 C01         -0.2300     0.1170     0.3290 ca         1 W29      -0.002000
      9 C02          1.2360     0.1710     0.2530 cc         1 W29      -0.159000
     10 S            2.0370     1.6990     0.3630 ss         1 W29       0.205000
     11 C07          3.5780     0.9820     0.1650 cc         1 W29      -0.243000
     12 C09          3.4770    -0.3670     0.0230 cd         1 W29      -0.131000
     13 C08          2.1340    -0.8470     0.0740 cd         1 W29      -0.086300
     14 C11          1.7810    -2.2850    -0.1720 c3         1 W29      -0.012100
     15 C12          1.5420    -2.5640    -1.6550 c3         1 W29      -0.086100
     16 HO2         -4.7350    -0.3460     1.2410 ho         1 W29       0.474000
     17 HO1         -4.0380     1.5480    -1.1620 ho         1 W29       0.482000
     18 H03         -0.5270     1.5270    -1.2750 ha         1 W29       0.136000
     19 H06         -2.7500    -1.3670     2.0480 ha         1 W29       0.114000
     20 H04         -0.2940    -1.2720     1.9680 ha         1 W29       0.122000
     21 H07          4.4710     1.5870     0.1720 h4         1 W29       0.150000
     22 H09          4.3320    -1.0150    -0.1180 ha         1 W29       0.132000
     23 H11          2.5910    -2.9200     0.1940 hc         1 W29       0.045200
     24 H11A         0.8930    -2.5690     0.3940 hc         1 W29       0.045200
     25 H12          2.4320    -2.3500    -2.2470 hc         1 W29       0.035700
     26 H12A         1.2740    -3.6090    -1.8160 hc         1 W29       0.035700
     27 H12B         0.7300    -1.9460    -2.0400 hc         1 W29       0.035700
@<TRIPOS>BOND
     1     1     2 1   
     2     1    16 1   
     3     2     3 ar  
     4     2     6 ar  
     5     3     4 1   
     6     3     5 ar  
     7     4    17 1   
     8     5     8 ar  
     9     5    18 1   
    10     6     7 ar  
    11     6    19 1   
    12     7     8 ar  
    13     7    20 1   
    14     8     9 1   
    15     9    10 1   
    16     9    13 2   
    17    10    11 1   
    18    11    12 2   
    19    11    21 1   
    20    12    13 1   
    21    12    22 1   
    22    13    14 1   
    23    14    15 1   
    24    14    23 1   
    25    14    24 1   
    26    15    25 1   
    27    15    26 1   
    28    15    27 1   
@<TRIPOS>SUBSTRUCTURE
     1 W29         1 TEMP              0 ****  ****    0 ROOT
