@<TRIPOS>MOLECULE
W2A
   27    27     1     0     0
SMALL
bcc


@<TRIPOS>ATOM
      1 N1          19.9670    27.7570     2.5180 n1         1 W2A      -0.365800
      2 C4          22.3860    29.1520     6.5170 c6         1 W2A      -0.079400
      3 C5          22.0610    28.7400     5.0890 c6         1 W2A      -0.066400
      4 C6          20.5570    28.4650     4.9570 c6         1 W2A      -0.001600
      5 C7          20.2210    28.0670     3.5970 c1         1 W2A       0.209700
      6 C1          20.0580    27.4130     5.9740 c6         1 W2A       0.239500
      7 C           20.5650    26.0040     5.6880 c3         1 W2A      -0.120100
      8 C3          21.8670    28.1360     7.5200 c6         1 W2A       0.213800
      9 N           20.4390    27.9210     7.2910 n3         1 W2A      -0.772500
     10 S           19.4380    27.7320     8.5830 s6         1 W2A       1.252900
     11 O           18.0730    27.7140     8.0770 o          1 W2A      -0.603300
     12 O1          19.8100    28.7340     9.5710 o          1 W2A      -0.603300
     13 C2          19.7910    26.1390     9.2920 c3         1 W2A      -0.266300
     14 H1          23.4650    29.2540     6.6380 hc         1 W2A       0.057700
     15 H2          21.9410    30.1260     6.7330 hc         1 W2A       0.057700
     16 H3          22.6300    27.8500     4.8110 hc         1 W2A       0.053700
     17 H4          22.3480    29.5280     4.3920 hc         1 W2A       0.053700
     18 H5          20.0110    29.3930     5.1550 hc         1 W2A       0.090700
     19 H6          18.9700    27.4060     5.9210 h1         1 W2A       0.094700
     20 H7          20.1980    25.3050     6.4390 hc         1 W2A       0.047700
     21 H8          20.1940    25.6550     4.7240 hc         1 W2A       0.047700
     22 H9          21.6520    25.9320     5.6690 hc         1 W2A       0.047700
     23 H10         22.4220    27.1960     7.4330 h1         1 W2A       0.053200
     24 H11         22.0220    28.5030     8.5330 h1         1 W2A       0.053200
     25 H12         19.1630    26.0170    10.1740 h1         1 W2A       0.101033
     26 H13         19.5650    25.3580     8.5700 h1         1 W2A       0.101033
     27 H14         20.8400    26.0940     9.5790 h1         1 W2A       0.101033
@<TRIPOS>BOND
     1     1     5 3   
     2     2     3 1   
     3     2     8 1   
     4     2    14 1   
     5     2    15 1   
     6     3     4 1   
     7     3    16 1   
     8     3    17 1   
     9     4     5 1   
    10     4     6 1   
    11     4    18 1   
    12     6     7 1   
    13     6     9 1   
    14     6    19 1   
    15     7    20 1   
    16     7    21 1   
    17     7    22 1   
    18     8     9 1   
    19     8    23 1   
    20     8    24 1   
    21     9    10 1   
    22    10    11 2   
    23    10    12 2   
    24    10    13 1   
    25    13    25 1   
    26    13    26 1   
    27    13    27 1   
@<TRIPOS>SUBSTRUCTURE
     1 W2A         1 TEMP              0 ****  ****    0 ROOT
