@<TRIPOS>MOLECULE
W2A
   27    27     1     0     0
SMALL
No Charge or Current Charge


@<TRIPOS>ATOM
      1 N1          19.9540    27.9650     2.3770 n1         1 W2A      -0.455000
      2 C4          22.4830    29.0080     6.5260 c6         1 W2A      -0.079400
      3 C5          22.1570    28.5920     5.0720 c6         1 W2A      -0.066400
      4 C6          20.6170    28.5350     4.8710 c6         1 W2A      -0.001600
      5 C7          20.2510    28.2000     3.4790 c1         1 W2A       0.298900
      6 C1          19.9350    27.5990     5.9200 c6         1 W2A       0.239500
      7 C           20.2640    26.0850     5.7050 c3         1 W2A      -0.120100
      8 C3          21.7510    28.1190     7.5600 c6         1 W2A       0.213800
      9 N           20.2880    28.0740     7.2930 n3         1 W2A      -0.772500
     10 S           19.2880    27.5700     8.6070 s6         1 W2A       1.222100
     11 O           18.0740    26.9920     8.0230 o          1 W2A      -0.532500
     12 O1          19.1770    28.7160     9.5140 o          1 W2A      -0.532500
     13 C2          20.1840    26.2420     9.3990 c3         1 W2A      -0.377100
     14 H1          23.5670    28.9620     6.6980 hc         1 W2A       0.057700
     15 H2          22.1880    30.0550     6.6820 hc         1 W2A       0.057700
     16 H3          22.6140    27.6170     4.8500 hc         1 W2A       0.053700
     17 H4          22.6070    29.3120     4.3750 hc         1 W2A       0.053700
     18 H5          20.2180    29.5470     5.0280 hc         1 W2A       0.090700
     19 H6          18.8500    27.7090     5.7640 h1         1 W2A       0.094700
     20 H7          19.7240    25.4530     6.4180 hc         1 W2A       0.047700
     21 H8          19.9620    25.7450     4.7080 hc         1 W2A       0.047700
     22 H9          21.3310    25.8680     5.8160 hc         1 W2A       0.047700
     23 H10         22.1850    27.1090     7.5470 h1         1 W2A       0.053200
     24 H11         21.9460    28.5370     8.5580 h1         1 W2A       0.053200
     25 H12         19.5370    25.8390    10.1850 h1         1 W2A       0.101033
     26 H13         20.4020    25.4830     8.6430 h1         1 W2A       0.101033
     27 H14         21.1010    26.6580     9.8270 h1         1 W2A       0.101033
@<TRIPOS>BOND
     1     1     5 3   
     2     2     3 1   
     3     2     8 1   
     4     2    14 1   
     5     2    15 1   
     6     3     4 1   
     7     3    16 1   
     8     3    17 1   
     9     4     5 1   
    10     4     6 1   
    11     4    18 1   
    12     6     7 1   
    13     6     9 1   
    14     6    19 1   
    15     7    20 1   
    16     7    21 1   
    17     7    22 1   
    18     8     9 1   
    19     8    23 1   
    20     8    24 1   
    21     9    10 1   
    22    10    11 2   
    23    10    12 2   
    24    10    13 1   
    25    13    25 1   
    26    13    26 1   
    27    13    27 1   
@<TRIPOS>SUBSTRUCTURE
     1 W2A         1 TEMP              0 ****  ****    0 ROOT
