@<TRIPOS>MOLECULE
W2B
   32    33     1     0     0
SMALL
No Charge or Current Charge


@<TRIPOS>ATOM
      1 N1          -5.3020    16.8400   -33.9510 na         1 W2B       0.122800
      2 C7          -0.9100    10.9000   -35.6640 c6         1 W2B      -0.070400
      3 C8           0.0820    11.7760   -36.4630 c6         1 W2B      -0.078400
      4 N2          -3.1630    13.8200   -34.5630 ns         1 W2B      -0.501900
      5 C9           0.4600    13.0640   -35.6780 c6         1 W2B      -0.070400
      6 C1          -6.6980    18.3200   -34.5230 cc         1 W2B       0.249900
      7 C5          -2.0840    13.2070   -35.3480 c6         1 W2B       0.109700
      8 C6          -2.2370    11.6560   -35.3580 c6         1 W2B      -0.086900
      9 C4          -3.6280    15.1120   -34.7080 c          1 W2B       0.583100
     10 C3          -4.7480    15.4950   -33.7330 c3         1 W2B       0.008600
     11 C2          -4.7000    18.0540   -33.5960 cd         1 W2B      -0.145000
     12 O           -3.1650    15.8690   -35.5520 o          1 W2B      -0.585100
     13 N           -6.5580    17.0100   -34.5240 nd         1 W2B      -0.525800
     14 C           -5.6040    18.9990   -33.9730 cc         1 W2B      -0.229000
     15 C10         -0.6950    13.5950   -34.7810 c6         1 W2B      -0.086900
     16 H2          -0.4370    10.5940   -34.7200 hc         1 W2B       0.041950
     17 H3          -0.3700    12.0480   -37.4260 hc         1 W2B       0.043200
     18 H4           0.9900    11.2030   -36.7010 hc         1 W2B       0.043200
     19 H5          -3.6010    13.2600   -33.8400 hn         1 W2B       0.308500
     20 H6           1.3410    12.8730   -35.0500 hc         1 W2B       0.041950
     21 H7           0.7620    13.8410   -36.3940 hc         1 W2B       0.041950
     22 H8          -7.6050    18.7520   -34.9260 h4         1 W2B       0.036100
     23 H9          -2.1530    13.5760   -36.3830 h1         1 W2B       0.083700
     24 H10         -2.9980    11.3830   -36.1020 hc         1 W2B       0.043450
     25 H11         -2.6200    11.3040   -34.3910 hc         1 W2B       0.043450
     26 H12         -5.5490    14.7530   -33.8270 h1         1 W2B       0.075200
     27 H13         -4.3460    15.4360   -32.7160 h1         1 W2B       0.075200
     28 H14         -3.7240    18.1300   -33.1310 h4         1 W2B       0.151000
     29 H15         -5.5180    20.0760   -33.8740 ha         1 W2B       0.145000
     30 H16         -0.5910    13.1890   -33.7650 hc         1 W2B       0.043450
     31 H17         -0.6110    14.6860   -34.6850 hc         1 W2B       0.043450
     32 H1          -1.1250     9.9720   -36.2120 hc         1 W2B       0.041950
@<TRIPOS>BOND
     1     1    10 1   
     2     1    11 1   
     3     1    13 1   
     4     2     3 1   
     5     2     8 1   
     6     2    16 1   
     7     2    32 1   
     8     3     5 1   
     9     3    17 1   
    10     3    18 1   
    11     4     7 1   
    12     4     9 1   
    13     4    19 1   
    14     5    15 1   
    15     5    20 1   
    16     5    21 1   
    17     6    13 2   
    18     6    14 1   
    19     6    22 1   
    20     7     8 1   
    21     7    15 1   
    22     7    23 1   
    23     8    24 1   
    24     8    25 1   
    25     9    10 1   
    26     9    12 2   
    27    10    26 1   
    28    10    27 1   
    29    11    14 2   
    30    11    28 1   
    31    14    29 1   
    32    15    30 1   
    33    15    31 1   
@<TRIPOS>SUBSTRUCTURE
     1 W2B         1 TEMP              0 ****  ****    0 ROOT
