@<TRIPOS>MOLECULE
W2B
   32    33     1     0     0
SMALL
abcg2


@<TRIPOS>ATOM
      1 N1          -5.1290    16.8170   -33.8140 na         1 W2B       0.122800
      2 C7          -1.1940    10.9950   -35.9000 c6         1 W2B      -0.070400
      3 C8          -0.1070    11.8290   -36.5780 c6         1 W2B      -0.078400
      4 N2          -3.0160    13.9540   -34.3860 ns         1 W2B      -0.501900
      5 C9           0.4520    12.8930   -35.6130 c6         1 W2B      -0.070400
      6 C1          -6.6540    17.7870   -34.9350 cc         1 W2B       0.249900
      7 C5          -2.0060    13.3210   -35.2280 c6         1 W2B       0.109700
      8 C6          -2.4070    11.8650   -35.5170 c6         1 W2B      -0.086900
      9 C4          -3.3320    15.2550   -34.4500 c          1 W2B       0.583100
     10 C3          -4.3070    15.7230   -33.3640 c3         1 W2B       0.008600
     11 C2          -4.9480    18.1380   -33.5850 cd         1 W2B      -0.145000
     12 O           -2.8740    16.0400   -35.2780 o          1 W2B      -0.585100
     13 N           -6.1650    16.5820   -34.6470 nd         1 W2B      -0.525800
     14 C           -5.9260    18.8060   -34.2920 cc         1 W2B      -0.229000
     15 C10         -0.6090    13.3870   -34.6090 c6         1 W2B      -0.086900
     16 H2          -0.7750    10.5310   -35.0030 hc         1 W2B       0.041950
     17 H3          -0.5320    12.3150   -37.4620 hc         1 W2B       0.043200
     18 H4           0.7010    11.1880   -36.9350 hc         1 W2B       0.043200
     19 H5          -3.4320    13.3940   -33.6560 hn         1 W2B       0.308500
     20 H6           1.2990    12.4820   -35.0590 hc         1 W2B       0.041950
     21 H7           0.8350    13.7390   -36.1880 hc         1 W2B       0.041950
     22 H8          -7.5110    17.8780   -35.5850 h4         1 W2B       0.036100
     23 H9          -1.9950    13.8880   -36.1600 h1         1 W2B       0.083700
     24 H10         -3.1530    11.8560   -36.3150 hc         1 W2B       0.043450
     25 H11         -2.8890    11.4450   -34.6290 hc         1 W2B       0.043450
     26 H12         -4.9490    14.9080   -33.0330 h1         1 W2B       0.075200
     27 H13         -3.7200    16.0650   -32.5100 h1         1 W2B       0.075200
     28 H14         -4.1560    18.4900   -32.9450 h4         1 W2B       0.151000
     29 H15         -6.0930    19.8690   -34.3310 ha         1 W2B       0.145000
     30 H16         -0.6020    12.7670   -33.7070 hc         1 W2B       0.043450
     31 H17         -0.3920    14.4090   -34.2940 hc         1 W2B       0.043450
     32 H1          -1.5180    10.1790   -36.5500 hc         1 W2B       0.041950
@<TRIPOS>BOND
     1     1    10 1   
     2     1    11 1   
     3     1    13 1   
     4     2     3 1   
     5     2     8 1   
     6     2    16 1   
     7     2    32 1   
     8     3     5 1   
     9     3    17 1   
    10     3    18 1   
    11     4     7 1   
    12     4     9 1   
    13     4    19 1   
    14     5    15 1   
    15     5    20 1   
    16     5    21 1   
    17     6    13 2   
    18     6    14 1   
    19     6    22 1   
    20     7     8 1   
    21     7    15 1   
    22     7    23 1   
    23     8    24 1   
    24     8    25 1   
    25     9    10 1   
    26     9    12 2   
    27    10    26 1   
    28    10    27 1   
    29    11    14 2   
    30    11    28 1   
    31    14    29 1   
    32    15    30 1   
    33    15    31 1   
@<TRIPOS>SUBSTRUCTURE
     1 W2B         1 TEMP              0 ****  ****    0 ROOT
