@<TRIPOS>MOLECULE
W2C
   52    54     1     0     0
SMALL
bcc


@<TRIPOS>ATOM
      1 C27         -7.2100     1.9560     0.6550 cg         1 W2C       0.236800
      2 C9           3.6230    -3.4680    -0.2190 c2         1 W2C       0.403200
      3 C23         -5.9780    -0.1530     0.6940 ca         1 W2C      -0.090500
      4 C25         -4.8530     1.8770     0.0170 ca         1 W2C      -0.090500
      5 C22         -4.8070    -0.8590     0.4930 ca         1 W2C      -0.125000
      6 C26         -3.6890     1.1580    -0.1780 ca         1 W2C      -0.125000
      7 C2          -1.5450    -0.6610    -1.2200 ca         1 W2C      -0.107000
      8 C4          -2.0590    -2.0490     0.6620 ca         1 W2C      -0.107000
      9 C1          -0.3860    -1.3880    -1.4360 ca         1 W2C      -0.116000
     10 C5          -0.8940    -2.7670     0.4470 ca         1 W2C      -0.116000
     11 C24         -6.0040     1.2210     0.4540 ca         1 W2C      -0.023000
     12 C21         -3.6450    -0.2190     0.0530 cp         1 W2C      -0.002000
     13 C3          -2.4030    -0.9810    -0.1670 cp         1 W2C      -0.042000
     14 C6          -0.0410    -2.4510    -0.6060 ca         1 W2C      -0.068300
     15 C12          2.4130    -0.1910     0.4210 c          1 W2C       0.677100
     16 C17          4.3830     3.6100     0.4160 c6         1 W2C      -0.155400
     17 C15          4.5180     1.1200     0.2730 c6         1 W2C      -0.109400
     18 C18          2.9020     3.5070     0.0640 c6         1 W2C       0.158800
     19 C14          3.0200     1.1080    -0.0840 c6         1 W2C       0.089500
     20 C16          5.1720     2.4300    -0.1460 c6         1 W2C       0.151100
     21 C7           1.2320    -3.2110    -0.8190 c3         1 W2C      -0.040100
     22 C8           2.4040    -2.6120    -0.0140 c3         1 W2C       0.055400
     23 N28         -8.1860     2.5480     0.8120 n1         1 W2C      -0.367800
     24 N10          4.6770    -3.0130    -0.7420 n2         1 W2C      -0.751100
     25 N19          2.2950     2.2420     0.4530 n7         1 W2C      -0.779200
     26 N11          2.6640    -1.2480    -0.3720 ns         1 W2C      -0.558900
     27 O13          1.8090    -0.2640     1.4790 o          1 W2C      -0.598100
     28 O20          5.2080     2.4480    -1.5620 oh         1 W2C      -0.600800
     29 H9           3.5010    -4.5050     0.1020 h4         1 W2C      -0.031200
     30 H8           2.1410    -2.6500     1.0470 h1         1 W2C       0.094700
     31 H10          5.3840    -3.7390    -0.8170 hn         1 W2C       0.383400
     32 H22         -4.8070    -1.9280     0.6620 ha         1 W2C       0.141000
     33 H25         -4.8690     2.9440    -0.1600 ha         1 W2C       0.142500
     34 H26         -2.7980     1.6830    -0.4970 ha         1 W2C       0.141000
     35 H2          -1.7930     0.1460    -1.8980 ha         1 W2C       0.132500
     36 H1           0.2520    -1.1310    -2.2720 ha         1 W2C       0.129500
     37 H4          -2.6950    -2.3160     1.4980 ha         1 W2C       0.132500
     38 H5          -0.6500    -3.5880     1.1110 ha         1 W2C       0.129500
     39 H71C         1.1030    -4.2550    -0.5220 hc         1 W2C       0.052200
     40 H72C         1.4990    -3.2100    -1.8790 hc         1 W2C       0.052200
     41 H14          2.9240     1.1360    -1.1750 h1         1 W2C       0.084700
     42 H11          3.2430    -1.1040    -1.1850 hn         1 W2C       0.329500
     43 H171         4.7990     4.5530     0.0450 hc         1 W2C       0.048700
     44 H172         4.5030     3.6270     1.5030 hc         1 W2C       0.048700
     45 H181         2.3450     4.3150     0.5420 h1         1 W2C       0.056200
     46 H182         2.7680     3.6360    -1.0140 h1         1 W2C       0.056200
     47 H16          6.1920     2.4560     0.2600 h1         1 W2C       0.035700
     48 H151         4.6290     1.0060     1.3550 hc         1 W2C       0.063200
     49 H152         5.0370     0.2750    -0.1890 hc         1 W2C       0.063200
     50 H19          2.2850     2.1750     1.4640 hn         1 W2C       0.368800
     51 H20          5.5110     3.3160    -1.8450 ho         1 W2C       0.403000
     52 H23         -6.8710    -0.6640     1.0260 ha         1 W2C       0.142500
@<TRIPOS>BOND
     1     1    11 1   
     2     1    23 3   
     3     2    22 1   
     4     2    24 2   
     5     2    29 1   
     6     3     5 ar  
     7     3    11 ar  
     8     3    52 1   
     9     4     6 ar  
    10     4    11 ar  
    11     4    33 1   
    12     5    12 ar  
    13     5    32 1   
    14     6    12 ar  
    15     6    34 1   
    16     7     9 ar  
    17     7    13 ar  
    18     7    35 1   
    19     8    10 ar  
    20     8    13 ar  
    21     8    37 1   
    22     9    14 ar  
    23     9    36 1   
    24    10    14 ar  
    25    10    38 1   
    26    12    13 1   
    27    14    21 1   
    28    15    19 1   
    29    15    26 1   
    30    15    27 2   
    31    16    18 1   
    32    16    20 1   
    33    16    43 1   
    34    16    44 1   
    35    17    19 1   
    36    17    20 1   
    37    17    48 1   
    38    17    49 1   
    39    18    25 1   
    40    18    45 1   
    41    18    46 1   
    42    19    25 1   
    43    19    41 1   
    44    20    28 1   
    45    20    47 1   
    46    21    22 1   
    47    21    39 1   
    48    21    40 1   
    49    22    26 1   
    50    22    30 1   
    51    24    31 1   
    52    25    50 1   
    53    26    42 1   
    54    28    51 1   
@<TRIPOS>SUBSTRUCTURE
     1 W2C         1 TEMP              0 ****  ****    0 ROOT
