@<TRIPOS>MOLECULE
W2C
   52    54     1     0     0
SMALL
No Charge or Current Charge


@<TRIPOS>ATOM
      1 C27         -6.8670     2.3190    -0.1460 cg         1 W2C       0.326000
      2 C9           3.9070    -3.6950     0.4050 c2         1 W2C       0.403200
      3 C23         -5.7370     0.1450     0.1350 ca         1 W2C      -0.072500
      4 C25         -4.4520     2.0780    -0.5860 ca         1 W2C      -0.072500
      5 C22         -4.5740    -0.6440     0.0840 ca         1 W2C      -0.107000
      6 C26         -3.2920     1.2860    -0.6380 ca         1 W2C      -0.107000
      7 C2          -1.0970    -0.7140    -1.3450 ca         1 W2C      -0.089000
      8 C4          -1.8710    -1.9770     0.5760 ca         1 W2C      -0.089000
      9 C1           0.0650    -1.5010    -1.3950 ca         1 W2C      -0.098000
     10 C5          -0.7070    -2.7630     0.5290 ca         1 W2C      -0.098000
     11 C24         -5.6800     1.5110    -0.1990 ca         1 W2C      -0.023000
     12 C21         -3.3280    -0.0920    -0.3040 cp         1 W2C      -0.002000
     13 C3          -2.0900    -0.9340    -0.3590 cp         1 W2C      -0.042000
     14 C6           0.2690    -2.5290    -0.4560 ca         1 W2C      -0.068300
     15 C12          2.3230    -0.4200     1.1010 c          1 W2C       0.610100
     16 C17          4.2140     3.4850     0.0360 c6         1 W2C      -0.155400
     17 C15          3.4090     1.1880    -0.6890 c6         1 W2C      -0.109400
     18 C18          3.4220     3.3150     1.3520 c6         1 W2C       0.158800
     19 C14          2.6170     1.0640     0.6510 c6         1 W2C       0.089500
     20 C16          3.5950     2.6630    -1.1190 c6         1 W2C       0.174300
     21 C7           1.5450    -3.3650    -0.4900 c3         1 W2C      -0.040100
     22 C8           2.6230    -2.8760     0.5110 c3         1 W2C       0.055400
     23 N28         -7.8360     2.9700    -0.1090 n1         1 W2C      -0.457000
     24 N10          4.8350    -3.4560    -0.4580 n2         1 W2C      -0.751100
     25 N19          3.3050     1.8830     1.7140 n7         1 W2C      -0.834400
     26 N11          2.8850    -1.4310     0.3410 ns         1 W2C      -0.491900
     27 O13          1.6350    -0.6720     2.0840 o          1 W2C      -0.598100
     28 O20          2.3420     3.2270    -1.5180 oh         1 W2C      -0.663000
     29 H9           4.0230    -4.5190     1.1030 h4         1 W2C      -0.031200
     30 H8           2.2280    -3.0380     1.5230 h1         1 W2C       0.094700
     31 H10          5.5960    -4.1410    -0.3320 hn         1 W2C       0.383400
     32 H22         -4.6460    -1.7000     0.3340 ha         1 W2C       0.123000
     33 H25         -4.3930     3.1340    -0.8450 ha         1 W2C       0.124500
     34 H26         -2.3520     1.7500    -0.9260 ha         1 W2C       0.123000
     35 H2          -1.2320     0.0670    -2.0890 ha         1 W2C       0.114500
     36 H1           0.8110    -1.3070    -2.1620 ha         1 W2C       0.111500
     37 H4          -2.6010    -2.1690     1.3580 ha         1 W2C       0.114500
     38 H5          -0.5600    -3.5490     1.2670 ha         1 W2C       0.111500
     39 H71C         1.3100    -4.4140    -0.2750 hc         1 W2C       0.052200
     40 H72C         1.9690    -3.3540    -1.5020 hc         1 W2C       0.052200
     41 H14          1.6150     1.4860     0.4780 h1         1 W2C       0.084700
     42 H11          3.4860    -1.1510    -0.4240 hn         1 W2C       0.329500
     43 H171         4.2630     4.5480    -0.2360 hc         1 W2C       0.048700
     44 H172         5.2530     3.1630     0.1940 hc         1 W2C       0.048700
     45 H181         3.9280     3.8630     2.1620 h1         1 W2C       0.056200
     46 H182         2.4170     3.7510     1.2390 h1         1 W2C       0.056200
     47 H16          4.2890     2.6880    -1.9730 h1         1 W2C       0.035700
     48 H151         4.4000     0.7230    -0.5830 hc         1 W2C       0.063200
     49 H152         2.8900     0.6430    -1.4900 hc         1 W2C       0.063200
     50 H19          4.2470     1.5050     1.8760 hn         1 W2C       0.424000
     51 H20          2.5340     4.1320    -1.8450 ho         1 W2C       0.442000
     52 H23         -6.6810    -0.3080     0.4330 ha         1 W2C       0.124500
@<TRIPOS>BOND
     1     1    11 1   
     2     1    23 3   
     3     2    22 1   
     4     2    24 2   
     5     2    29 1   
     6     3     5 ar  
     7     3    11 ar  
     8     3    52 1   
     9     4     6 ar  
    10     4    11 ar  
    11     4    33 1   
    12     5    12 ar  
    13     5    32 1   
    14     6    12 ar  
    15     6    34 1   
    16     7     9 ar  
    17     7    13 ar  
    18     7    35 1   
    19     8    10 ar  
    20     8    13 ar  
    21     8    37 1   
    22     9    14 ar  
    23     9    36 1   
    24    10    14 ar  
    25    10    38 1   
    26    12    13 1   
    27    14    21 1   
    28    15    19 1   
    29    15    26 1   
    30    15    27 2   
    31    16    18 1   
    32    16    20 1   
    33    16    43 1   
    34    16    44 1   
    35    17    19 1   
    36    17    20 1   
    37    17    48 1   
    38    17    49 1   
    39    18    25 1   
    40    18    45 1   
    41    18    46 1   
    42    19    25 1   
    43    19    41 1   
    44    20    28 1   
    45    20    47 1   
    46    21    22 1   
    47    21    39 1   
    48    21    40 1   
    49    22    26 1   
    50    22    30 1   
    51    24    31 1   
    52    25    50 1   
    53    26    42 1   
    54    28    51 1   
@<TRIPOS>SUBSTRUCTURE
     1 W2C         1 TEMP              0 ****  ****    0 ROOT
