@<TRIPOS>MOLECULE
W2D
   42    46     1     0     0
SMALL
No Charge or Current Charge


@<TRIPOS>ATOM
      1 C21         -3.4430     0.5610     0.9330 ca         1 W2D      -0.076000
      2 C22         -4.4030    -0.4230     0.6690 ca         1 W2D       0.054100
      3 O23         -5.0640    -1.1590     1.5990 os         1 W2D      -0.343100
      4 C24         -5.8900    -2.0570     0.7760 c5         1 W2D       0.373600
      5 O25         -5.7310    -1.7030    -0.6450 os         1 W2D      -0.344100
      6 C26         -4.7820    -0.7330    -0.6060 ca         1 W2D       0.059100
      7 C27         -4.2300    -0.0830    -1.7160 ca         1 W2D      -0.098000
      8 C28         -3.2560     0.9130    -1.4840 ca         1 W2D      -0.096000
      9 C20         -2.8580     1.2390    -0.1620 ca         1 W2D      -0.076300
     10 C19         -1.8030     2.3200     0.0760 c3         1 W2D      -0.074400
     11 C9          -0.3650     1.8430     0.0780 cc         1 W2D       0.585800
     12 N8          -0.0890     0.5120     0.0620 nd         1 W2D      -0.685000
     13 C7           1.2720     0.1180     0.0660 ca         1 W2D       0.260000
     14 C6           1.5650    -1.2590     0.0430 ca         1 W2D       0.015000
     15 C5           2.9010    -1.7200     0.0470 ca         1 W2D      -0.248500
     16 S2           3.2380    -3.4820     0.0130 sy         1 W2D       1.128600
     17 O3           4.5980    -3.7650     0.4630 o          1 W2D      -0.538500
     18 O1           2.0840    -4.2410     0.4890 o          1 W2D      -0.538500
     19 N4           3.2830    -3.8170    -1.5820 n8         1 W2D      -1.010100
     20 C18          3.9610    -0.7910     0.0710 ca         1 W2D      -0.024000
     21 C17          3.6790     0.5850     0.0950 ca         1 W2D      -0.073000
     22 C16          2.3430     1.0280     0.0930 ca         1 W2D      -0.028000
     23 C15          1.9850     2.4140     0.1200 cc         1 W2D      -0.013000
     24 N14          2.7400     3.4930     0.1540 nd         1 W2D      -0.424300
     25 N10          0.6870     2.8030     0.1150 na         1 W2D       0.054900
     26 N11          0.5370     4.1600     0.1460 nc         1 W2D      -0.641100
     27 C12          1.8050     4.5010     0.1730 cd         1 W2D       0.737200
     28 N13          2.1450     5.7830     0.1970 nv         1 W2D      -0.989200
     29 H21         -3.1570     0.7900     1.9570 ha         1 W2D       0.135000
     30 H241        -5.5570    -3.0900     0.9280 h2         1 W2D       0.065700
     31 H242        -6.9430    -1.9550     1.0640 h2         1 W2D       0.065700
     32 H27         -4.5430    -0.3390    -2.7250 ha         1 W2D       0.134000
     33 H28         -2.8100     1.4300    -2.3310 ha         1 W2D       0.117000
     34 H191        -1.9090     3.0990    -0.6860 hc         1 W2D       0.085200
     35 H192        -1.9980     2.8210     1.0310 hc         1 W2D       0.085200
     36 H6           0.7400    -1.9670     0.0200 ha         1 W2D       0.162000
     37 H18          4.9970    -1.1270     0.0700 ha         1 W2D       0.141000
     38 H41N         2.6600    -4.6200    -1.6190 hn         1 W2D       0.477500
     39 H42N         4.1990    -4.2560    -1.6500 hn         1 W2D       0.477500
     40 H17          4.4950     1.3040     0.1150 ha         1 W2D       0.143000
     41 H131         3.0850     5.9900    -0.1120 hn         1 W2D       0.480500
     42 H132         1.4220     6.4270    -0.0930 hn         1 W2D       0.480500
@<TRIPOS>BOND
     1     1     2 ar  
     2     1     9 ar  
     3     1    29 1   
     4     2     3 1   
     5     2     6 ar  
     6     3     4 1   
     7     4     5 1   
     8     4    30 1   
     9     4    31 1   
    10     5     6 1   
    11     6     7 ar  
    12     7     8 ar  
    13     7    32 1   
    14     8     9 ar  
    15     8    33 1   
    16     9    10 1   
    17    10    11 1   
    18    10    34 1   
    19    10    35 1   
    20    11    12 2   
    21    11    25 1   
    22    12    13 1   
    23    13    14 ar  
    24    13    22 ar  
    25    14    15 ar  
    26    14    36 1   
    27    15    16 1   
    28    15    20 ar  
    29    16    17 2   
    30    16    18 2   
    31    16    19 1   
    32    19    38 1   
    33    19    39 1   
    34    20    21 ar  
    35    20    37 1   
    36    21    22 ar  
    37    21    40 1   
    38    22    23 1   
    39    23    24 2   
    40    23    25 1   
    41    24    27 1   
    42    25    26 1   
    43    26    27 2   
    44    27    28 1   
    45    28    41 1   
    46    28    42 1   
@<TRIPOS>SUBSTRUCTURE
     1 W2D         1 TEMP              0 ****  ****    0 ROOT
