@<TRIPOS>MOLECULE
W2D
   42    46     1     0     0
SMALL
bcc


@<TRIPOS>ATOM
      1 C21         -3.2420     0.6080     0.8520 ca         1 W2D      -0.094000
      2 C22         -4.2000    -0.3620     0.7150 ca         1 W2D       0.054100
      3 O23         -4.7790    -1.1210     1.6770 os         1 W2D      -0.319900
      4 C24         -5.5670    -2.0890     0.9970 c5         1 W2D       0.327200
      5 O25         -5.6850    -1.6540    -0.3510 os         1 W2D      -0.320900
      6 C26         -4.7500    -0.6860    -0.5170 ca         1 W2D       0.059100
      7 C27         -4.3640    -0.0470    -1.6670 ca         1 W2D      -0.116000
      8 C28         -3.3840     0.9450    -1.5390 ca         1 W2D      -0.114000
      9 C20         -2.8270     1.2730    -0.3130 ca         1 W2D      -0.076300
     10 C19         -1.7740     2.3370    -0.2220 c3         1 W2D      -0.074400
     11 C9          -0.3870     1.7850    -0.1210 cc         1 W2D       0.585800
     12 N8          -0.1290     0.5260    -0.1580 nd         1 W2D      -0.685000
     13 C7           1.1650     0.0930    -0.0520 ca         1 W2D       0.390600
     14 C6           1.4060    -1.2910    -0.0850 ca         1 W2D      -0.068300
     15 C5           2.6950    -1.7490     0.0260 ca         1 W2D      -0.248500
     16 S2           2.9960    -3.4980     0.0320 sy         1 W2D       1.270200
     17 O3           3.9530    -3.8110     1.0810 o          1 W2D      -0.609300
     18 O1           1.7040    -4.1690     0.0460 o          1 W2D      -0.609300
     19 N4           3.8060    -3.6800    -1.3910 n8         1 W2D      -0.899700
     20 C18          3.7890    -0.8820     0.1730 ca         1 W2D      -0.042000
     21 C17          3.5660     0.4710     0.2050 ca         1 W2D      -0.091000
     22 C16          2.2590     0.9640     0.0950 ca         1 W2D      -0.093300
     23 C15          1.9380     2.3500     0.1270 cc         1 W2D       0.037700
     24 N14          2.6710     3.4290     0.2490 nd         1 W2D      -0.424300
     25 N10          0.6270     2.6930     0.0170 na         1 W2D       0.004200
     26 N11          0.4970     4.0320     0.0640 nc         1 W2D      -0.641100
     27 C12          1.7520     4.4280     0.2060 cd         1 W2D       0.737200
     28 N13          2.1020     5.7250     0.3520 nv         1 W2D      -0.878800
     29 H21         -2.8230     0.8550     1.8190 ha         1 W2D       0.153000
     30 H241        -5.0690    -3.0640     1.0300 h2         1 W2D       0.065700
     31 H242        -6.5540    -2.1480     1.4540 h2         1 W2D       0.065700
     32 H27         -4.7960    -0.2890    -2.6290 ha         1 W2D       0.152000
     33 H28         -3.0550     1.4690    -2.4280 ha         1 W2D       0.135000
     34 H191        -1.8170     2.9970    -1.0930 hc         1 W2D       0.085200
     35 H192        -1.9440     2.9880     0.6410 hc         1 W2D       0.085200
     36 H6           0.5660    -1.9630    -0.1930 ha         1 W2D       0.180000
     37 H18          4.7950    -1.2680     0.2590 ha         1 W2D       0.159000
     38 H41N         3.1990    -3.6440    -2.2040 hn         1 W2D       0.422300
     39 H42N         4.3620    -4.5310    -1.3980 hn         1 W2D       0.422300
     40 H17          4.3920     1.1590     0.3180 ha         1 W2D       0.161000
     41 H131         3.0590     5.9520     0.1380 hn         1 W2D       0.425300
     42 H132         1.4360     6.4130     0.0410 hn         1 W2D       0.425300
@<TRIPOS>BOND
     1     1     2 ar  
     2     1     9 ar  
     3     1    29 1   
     4     2     3 1   
     5     2     6 ar  
     6     3     4 1   
     7     4     5 1   
     8     4    30 1   
     9     4    31 1   
    10     5     6 1   
    11     6     7 ar  
    12     7     8 ar  
    13     7    32 1   
    14     8     9 ar  
    15     8    33 1   
    16     9    10 1   
    17    10    11 1   
    18    10    34 1   
    19    10    35 1   
    20    11    12 2   
    21    11    25 1   
    22    12    13 1   
    23    13    14 ar  
    24    13    22 ar  
    25    14    15 ar  
    26    14    36 1   
    27    15    16 1   
    28    15    20 ar  
    29    16    17 2   
    30    16    18 2   
    31    16    19 1   
    32    19    38 1   
    33    19    39 1   
    34    20    21 ar  
    35    20    37 1   
    36    21    22 ar  
    37    21    40 1   
    38    22    23 1   
    39    23    24 2   
    40    23    25 1   
    41    24    27 1   
    42    25    26 1   
    43    26    27 2   
    44    27    28 1   
    45    28    41 1   
    46    28    42 1   
@<TRIPOS>SUBSTRUCTURE
     1 W2D         1 TEMP              0 ****  ****    0 ROOT
