@<TRIPOS>MOLECULE
W2E
   33    35     1     0     0
SMALL
No Charge or Current Charge


@<TRIPOS>ATOM
      1 CAA          6.9920     0.6590    -0.2420 c3         1 W2E       0.153900
      2 OAB          5.5520     0.6930    -0.2260 os         1 W2E      -0.440100
      3 CAC          4.8800    -0.4510     0.1280 c          1 W2E       0.604700
      4 OAD          5.4430    -1.4960     0.4300 o          1 W2E      -0.482000
      5 CAE          3.3750    -0.3040     0.1130 ca         1 W2E      -0.122600
      6 CAJ          2.5570    -1.4010     0.4550 ca         1 W2E      -0.062000
      7 CAI          1.1560    -1.2840     0.4460 ca         1 W2E      -0.092500
      8 CAF          2.7540     0.9120    -0.2480 ca         1 W2E      -0.062000
      9 CAG          1.3530     1.0290    -0.2560 ca         1 W2E      -0.092500
     10 CAH          0.5290    -0.0610     0.1130 ca         1 W2E      -0.121900
     11 CAK         -0.9420     0.0370     0.0710 cc         1 W2E       0.553500
     12 CAT         -3.0700    -0.8340    -0.1620 ca         1 W2E       0.187400
     13 CAS         -3.9020    -1.9430    -0.4060 ca         1 W2E      -0.103000
     14 CAR         -5.3000    -1.8070    -0.4320 ca         1 W2E      -0.074000
     15 CAQ         -5.8840    -0.5510    -0.2100 ca         1 W2E      -0.131000
     16 CAP         -5.0690     0.5650     0.0360 ca         1 W2E      -0.040000
     17 CAO         -3.6650     0.4230     0.0600 ca         1 W2E      -0.202600
     18 CAM         -2.7820     1.5820     0.3250 c          1 W2E       0.578600
     19 N1          -1.4660     1.2810     0.3110 ns         1 W2E      -0.427400
     20 OAN         -3.1830     2.7140     0.5430 o          1 W2E      -0.535000
     21 N           -1.6820    -1.0520    -0.1540 nd         1 W2E      -0.625100
     22 HAA1         7.3930     1.6360    -0.5410 h1         1 W2E       0.051033
     23 HAA2         7.3900     0.4180     0.7520 h1         1 W2E       0.051033
     24 HAA3         7.3580    -0.0910    -0.9550 h1         1 W2E       0.051033
     25 HAJ          3.0050    -2.3550     0.7280 ha         1 W2E       0.139500
     26 HAF          3.3510     1.7760    -0.5340 ha         1 W2E       0.139500
     27 HAI          0.5580    -2.1530     0.7140 ha         1 W2E       0.132000
     28 HAG          0.9180     1.9770    -0.5680 ha         1 W2E       0.132000
     29 H1          -0.8380     2.0430     0.5140 hn         1 W2E       0.332500
     30 HAS         -3.4560    -2.9190    -0.5790 ha         1 W2E       0.133000
     31 HAR         -5.9290    -2.6750    -0.6230 ha         1 W2E       0.118000
     32 HAQ         -6.9670    -0.4410    -0.2290 ha         1 W2E       0.121000
     33 HAP         -5.5290     1.5370     0.2090 ha         1 W2E       0.136000
@<TRIPOS>BOND
     1     1     2 1   
     2     1    22 1   
     3     1    23 1   
     4     1    24 1   
     5     2     3 1   
     6     3     4 2   
     7     3     5 1   
     8     5     6 ar  
     9     5     8 ar  
    10     6     7 ar  
    11     6    25 1   
    12     7    10 ar  
    13     7    27 1   
    14     8     9 ar  
    15     8    26 1   
    16     9    10 ar  
    17     9    28 1   
    18    10    11 1   
    19    11    19 1   
    20    11    21 2   
    21    12    13 ar  
    22    12    17 ar  
    23    12    21 1   
    24    13    14 ar  
    25    13    30 1   
    26    14    15 ar  
    27    14    31 1   
    28    15    16 ar  
    29    15    32 1   
    30    16    17 ar  
    31    16    33 1   
    32    17    18 1   
    33    18    19 1   
    34    18    20 2   
    35    19    29 1   
@<TRIPOS>SUBSTRUCTURE
     1 W2E         1 TEMP              0 ****  ****    0 ROOT
