@<TRIPOS>MOLECULE
W2E
   33    35     1     0     0
SMALL
abcg2


@<TRIPOS>ATOM
      1 CAA          6.8940     0.5610    -0.1790 c3         1 W2E       0.153900
      2 OAB          5.4670     0.6290    -0.1720 os         1 W2E      -0.440100
      3 CAC          4.8010    -0.4770     0.1080 c          1 W2E       0.604700
      4 OAD          5.3270    -1.5320     0.3650 o          1 W2E      -0.482000
      5 CAE          3.3270    -0.2800     0.0750 ca         1 W2E      -0.122600
      6 CAJ          2.5100    -1.3600     0.4040 ca         1 W2E      -0.062000
      7 CAI          1.1350    -1.2270     0.3900 ca         1 W2E      -0.092500
      8 CAF          2.7450     0.9350    -0.2750 ca         1 W2E      -0.062000
      9 CAG          1.3670     1.0700    -0.2830 ca         1 W2E      -0.092500
     10 CAH          0.5500    -0.0070     0.0540 ca         1 W2E      -0.121900
     11 CAK         -0.9220     0.1040     0.0530 cc         1 W2E       0.553500
     12 CAT         -3.0010    -0.8070    -0.1560 ca         1 W2E       0.187400
     13 CAS         -3.7920    -1.9420    -0.3830 ca         1 W2E      -0.103000
     14 CAR         -5.1650    -1.8380    -0.3890 ca         1 W2E      -0.074000
     15 CAQ         -5.7900    -0.6050    -0.1690 ca         1 W2E      -0.131000
     16 CAP         -5.0280     0.5200     0.0560 ca         1 W2E      -0.040000
     17 CAO         -3.6340     0.4280     0.0610 ca         1 W2E      -0.202600
     18 CAM         -2.8110     1.6050     0.3050 c          1 W2E       0.578600
     19 N1          -1.4590     1.3360     0.2870 ns         1 W2E      -0.427400
     20 OAN         -3.2260     2.7290     0.5190 o          1 W2E      -0.535000
     21 N           -1.6350    -0.9430    -0.1600 nd         1 W2E      -0.625100
     22 HAA1         7.2360     1.5600    -0.4290 h1         1 W2E       0.051033
     23 HAA2         7.2820     0.2790     0.7990 h1         1 W2E       0.051033
     24 HAA3         7.2530    -0.1450    -0.9270 h1         1 W2E       0.051033
     25 HAJ          2.9490    -2.3080     0.6810 ha         1 W2E       0.139500
     26 HAF          3.3520     1.7860    -0.5490 ha         1 W2E       0.139500
     27 HAI          0.5090    -2.0690     0.6520 ha         1 W2E       0.132000
     28 HAG          0.9480     2.0200    -0.5860 ha         1 W2E       0.132000
     29 H1          -0.8470     2.1130     0.5010 hn         1 W2E       0.332500
     30 HAS         -3.3040    -2.8930    -0.5550 ha         1 W2E       0.133000
     31 HAR         -5.7680    -2.7190    -0.5670 ha         1 W2E       0.118000
     32 HAQ         -6.8700    -0.5380    -0.1750 ha         1 W2E       0.121000
     33 HAP         -5.5020     1.4780     0.2290 ha         1 W2E       0.136000
@<TRIPOS>BOND
     1     1     2 1   
     2     1    22 1   
     3     1    23 1   
     4     1    24 1   
     5     2     3 1   
     6     3     4 2   
     7     3     5 1   
     8     5     6 ar  
     9     5     8 ar  
    10     6     7 ar  
    11     6    25 1   
    12     7    10 ar  
    13     7    27 1   
    14     8     9 ar  
    15     8    26 1   
    16     9    10 ar  
    17     9    28 1   
    18    10    11 1   
    19    11    19 1   
    20    11    21 2   
    21    12    13 ar  
    22    12    17 ar  
    23    12    21 1   
    24    13    14 ar  
    25    13    30 1   
    26    14    15 ar  
    27    14    31 1   
    28    15    16 ar  
    29    15    32 1   
    30    16    17 ar  
    31    16    33 1   
    32    17    18 1   
    33    18    19 1   
    34    18    20 2   
    35    19    29 1   
@<TRIPOS>SUBSTRUCTURE
     1 W2E         1 TEMP              0 ****  ****    0 ROOT
