@<TRIPOS>MOLECULE
W2F
   31    32     1     0     0
SMALL
abcg2


@<TRIPOS>ATOM
      1 N1          23.8560    15.8790    -7.5300 ns         1 W2F      -0.484500
      2 N2          26.0970    18.7030    -8.1940 ns         1 W2F      -0.485900
      3 C3          22.6060    16.4200    -7.2670 c          1 W2F       0.574000
      4 C4          22.5380    17.9190    -7.1500 c6         1 W2F      -0.159400
      5 C5          23.6480    18.6320    -7.9100 c6         1 W2F      -0.085400
      6 C7          28.1700    19.9520    -8.3870 ca         1 W2F      -0.196600
      7 C9          28.9810    21.3650   -10.2010 ca         1 W2F      -0.198000
      8 C11         30.5580    20.3480    -8.6900 ca         1 W2F      -0.195000
      9 C12         29.5080    19.7800    -8.0020 ca         1 W2F      -0.004000
     10 C1          25.0070    18.0590    -7.5110 c6         1 W2F       0.032700
     11 C2          25.0520    16.5460    -7.7110 c          1 W2F       0.555000
     12 C6          27.1430    19.2650    -7.5490 c          1 W2F       0.634700
     13 O1          27.2810    19.1860    -6.3260 o          1 W2F      -0.602100
     14 C8          27.9460    20.7700    -9.5010 ca         1 W2F       0.200000
     15 C10         30.3130    21.1560    -9.8130 ca         1 W2F       0.342000
     16 N3          31.3400    21.7730   -10.4800 nv         1 W2F      -1.091000
     17 CL1         26.3230    21.1590   -10.0530 cl         1 W2F      -0.220000
     18 O2          21.6450    15.6870    -7.1310 o          1 W2F      -0.516000
     19 O3          26.0640    15.9340    -7.9870 o          1 W2F      -0.503000
     20 H2          23.8950    14.8680    -7.6140 hn         1 W2F       0.330500
     21 H7          26.0600    18.7460    -9.1990 hn         1 W2F       0.327500
     22 H4          22.6060    18.1500    -6.0810 hc         1 W2F       0.084200
     23 H3          21.5490    18.2300    -7.4840 hc         1 W2F       0.084200
     24 H5          23.6330    19.6980    -7.6860 hc         1 W2F       0.064200
     25 H6          23.5070    18.5170    -8.9880 hc         1 W2F       0.064200
     26 H8          28.7610    22.0060   -11.0440 ha         1 W2F       0.132000
     27 H9          31.5780    20.1760    -8.3670 ha         1 W2F       0.124000
     28 H10         29.7080    19.1630    -7.1370 ha         1 W2F       0.139000
     29 H1          25.1640    18.2180    -6.4400 h1         1 W2F       0.111700
     30 H12         32.2670    21.4000   -10.3480 hn         1 W2F       0.469500
     31 H11         31.1570    22.1110   -11.4120 hn         1 W2F       0.469500
@<TRIPOS>BOND
     1     1     3 1   
     2     1    11 1   
     3     1    20 1   
     4     2    10 1   
     5     2    12 1   
     6     2    21 1   
     7     3     4 1   
     8     3    18 2   
     9     4     5 1   
    10     4    22 1   
    11     4    23 1   
    12     5    10 1   
    13     5    24 1   
    14     5    25 1   
    15     6     9 ar  
    16     6    12 1   
    17     6    14 ar  
    18     7    14 ar  
    19     7    15 ar  
    20     7    26 1   
    21     8     9 ar  
    22     8    15 ar  
    23     8    27 1   
    24     9    28 1   
    25    10    11 1   
    26    10    29 1   
    27    11    19 2   
    28    12    13 2   
    29    14    17 1   
    30    15    16 1   
    31    16    30 1   
    32    16    31 1   
@<TRIPOS>SUBSTRUCTURE
     1 W2F         1 TEMP              0 ****  ****    0 ROOT
