@<TRIPOS>MOLECULE
W2F
   31    32     1     0     0
SMALL
No Charge or Current Charge


@<TRIPOS>ATOM
      1 N1          23.9100    15.9000    -7.5020 ns         1 W2F      -0.484500
      2 N2          25.9970    18.9600    -8.0330 ns         1 W2F      -0.485900
      3 C3          22.6150    16.3150    -7.3840 c          1 W2F       0.574000
      4 C4          22.3800    17.8250    -7.2590 c6         1 W2F      -0.159400
      5 C5          23.5160    18.6800    -7.8690 c6         1 W2F      -0.085400
      6 C7          28.2890    19.8610    -8.3910 ca         1 W2F      -0.196600
      7 C9          29.0180    21.2970   -10.2420 ca         1 W2F      -0.198000
      8 C11         30.6670    20.3550    -8.7540 ca         1 W2F      -0.195000
      9 C12         29.6490    19.7250    -8.0210 ca         1 W2F      -0.004000
     10 C1          24.9040    18.1950    -7.3850 c6         1 W2F       0.032700
     11 C2          25.0590    16.6450    -7.5060 c          1 W2F       0.555000
     12 C6          27.2690    19.1290    -7.5380 c          1 W2F       0.634700
     13 O1          27.5570    18.7040    -6.4270 o          1 W2F      -0.602100
     14 C8          27.9860    20.6740    -9.5210 ca         1 W2F       0.200000
     15 C10         30.3510    21.1370    -9.8650 ca         1 W2F       0.342000
     16 N3          31.3440    21.7490   -10.5750 nv         1 W2F      -1.091000
     17 Cl1         26.3500    21.0240   -10.0900 cl         1 W2F      -0.220000
     18 O2          21.6940    15.5170    -7.4340 o          1 W2F      -0.516000
     19 O3          26.1440    16.0870    -7.5630 o          1 W2F      -0.503000
     20 H2          24.0390    14.9030    -7.5870 hn         1 W2F       0.330500
     21 H7          25.8300    19.3420    -8.9560 hn         1 W2F       0.327500
     22 H4          22.3630    18.0310    -6.1800 hc         1 W2F       0.084200
     23 H3          21.3840    18.0820    -7.6440 hc         1 W2F       0.084200
     24 H5          23.3720    19.7390    -7.6140 hc         1 W2F       0.064200
     25 H6          23.4670    18.6130    -8.9660 hc         1 W2F       0.064200
     26 H8          28.7710    21.9180   -11.0970 ha         1 W2F       0.132000
     27 H9          31.7030    20.2290    -8.4510 ha         1 W2F       0.124000
     28 H10         29.9290    19.1170    -7.1620 ha         1 W2F       0.139000
     29 H1          24.9560    18.3850    -6.3020 h1         1 W2F       0.111700
     30 H12         32.3160    21.4980   -10.3980 hn         1 W2F       0.469500
     31 H11         31.1320    22.1780   -11.4750 hn         1 W2F       0.469500
@<TRIPOS>BOND
     1     1     3 1   
     2     1    11 1   
     3     1    20 1   
     4     2    10 1   
     5     2    12 1   
     6     2    21 1   
     7     3     4 1   
     8     3    18 2   
     9     4     5 1   
    10     4    22 1   
    11     4    23 1   
    12     5    10 1   
    13     5    24 1   
    14     5    25 1   
    15     6     9 ar  
    16     6    12 1   
    17     6    14 ar  
    18     7    14 ar  
    19     7    15 ar  
    20     7    26 1   
    21     8     9 ar  
    22     8    15 ar  
    23     8    27 1   
    24     9    28 1   
    25    10    11 1   
    26    10    29 1   
    27    11    19 2   
    28    12    13 2   
    29    14    17 1   
    30    15    16 1   
    31    16    30 1   
    32    16    31 1   
@<TRIPOS>SUBSTRUCTURE
     1 W2F         1 TEMP              0 ****  ****    0 ROOT
