@<TRIPOS>MOLECULE
W2G
   24    25     1     0     0
SMALL
No Charge or Current Charge


@<TRIPOS>ATOM
      1 C4           0.8710    15.3360    -3.1780 c5         1 W2G      -0.065400
      2 C5          -0.3920    14.4520    -3.3690 c5         1 W2G       0.012600
      3 C6          -1.4450    14.5280    -2.2670 cc         1 W2G      -0.037300
      4 C7          -2.7970    14.4350    -2.4580 cd         1 W2G      -0.253000
      5 C8          -2.1390    14.8210    -0.0600 cd         1 W2G      -0.252000
      6 O            1.1760    12.5780    -1.4240 o          1 W2G      -0.735500
      7 O1          -0.1990    11.1430    -2.1940 o          1 W2G      -0.735500
      8 C1           0.2190    13.0270    -3.6080 c5         1 W2G      -0.182700
      9 C9          -1.0690    14.7530    -0.9140 cc         1 W2G      -0.076000
     10 C2           1.6090    13.3120    -4.2890 c5         1 W2G      -0.049400
     11 C3           1.7000    14.8650    -4.3980 c5         1 W2G      -0.060400
     12 S           -3.6700    14.6070    -0.9270 ss         1 W2G       0.080000
     13 H1           1.4080    15.1460    -2.2430 hc         1 W2G       0.037700
     14 H2           0.6420    16.4070    -3.2190 hc         1 W2G       0.037700
     15 H3          -0.8840    14.7690    -4.2980 hc         1 W2G       0.014700
     16 H4          -3.3350    14.2800    -3.3850 h4         1 W2G       0.131000
     17 H5          -2.1320    14.9790     1.0120 h4         1 W2G       0.133000
     18 H7          -0.4440    12.4600    -4.2720 hc         1 W2G       0.040700
     19 H8          -0.0390    14.8540    -0.5860 ha         1 W2G       0.165000
     20 H9           1.6800    12.8420    -5.2760 hc         1 W2G       0.020700
     21 H10          2.4450    12.9150    -3.7010 hc         1 W2G       0.020700
     22 H11          2.7350    15.2230    -4.3620 hc         1 W2G       0.018200
     23 H12          1.2660    15.2250    -5.3390 hc         1 W2G       0.018200
     24 C            0.3990    12.2040    -2.2920 c          1 W2G       0.717000
@<TRIPOS>BOND
     1     1     2 1   
     2     1    11 1   
     3     1    13 1   
     4     1    14 1   
     5     2     3 1   
     6     2     8 1   
     7     2    15 1   
     8     3     4 2   
     9     3     9 1   
    10     4    12 1   
    11     4    16 1   
    12     5     9 2   
    13     5    12 1   
    14     5    17 1   
    15     6    24 1   
    16     7    24 1   
    17     8    10 1   
    18     8    18 1   
    19     8    24 1   
    20     9    19 1   
    21    10    11 1   
    22    10    20 1   
    23    10    21 1   
    24    11    22 1   
    25    11    23 1   
@<TRIPOS>SUBSTRUCTURE
     1 W2G         1 TEMP              0 ****  ****    0 ROOT
