@<TRIPOS>MOLECULE
W2G
   24    25     1     0     0
SMALL
bcc


@<TRIPOS>ATOM
      1 C4           0.7550    15.3510    -3.2740 c5         1 W2G      -0.065400
      2 C5          -0.4120    14.3640    -3.3620 c5         1 W2G       0.012600
      3 C6          -1.4300    14.5010    -2.2710 cc         1 W2G      -0.037300
      4 C7          -2.7690    14.6240    -2.5010 cd         1 W2G      -0.126100
      5 C8          -2.2490    14.7040    -0.0980 cd         1 W2G      -0.125100
      6 O            1.7380    12.8850    -1.6350 o          1 W2G      -0.840800
      7 O1           0.0440    11.4400    -1.7220 o          1 W2G      -0.840800
      8 C1           0.2710    12.9830    -3.5160 c5         1 W2G      -0.182700
      9 C9          -1.1410    14.5490    -0.8700 cc         1 W2G      -0.094000
     10 C2           1.4340    13.3080    -4.4670 c5         1 W2G      -0.049400
     11 C3           1.8040    14.7920    -4.2440 c5         1 W2G      -0.060400
     12 S           -3.6720    14.7960    -1.0510 ss         1 W2G      -0.209800
     13 H1           1.1520    15.3710    -2.2600 hc         1 W2G       0.037700
     14 H2           0.4440    16.3670    -3.5230 hc         1 W2G       0.037700
     15 H3          -0.9300    14.5520    -4.3100 hc         1 W2G       0.014700
     16 H4          -3.2690    14.6300    -3.4580 h4         1 W2G       0.149000
     17 H5          -2.3040    14.7670     0.9780 h4         1 W2G       0.151000
     18 H7          -0.4320    12.2880    -3.9830 hc         1 W2G       0.040700
     19 H8          -0.1450    14.4640    -0.4620 ha         1 W2G       0.183000
     20 H9           1.1060    13.1600    -5.4980 hc         1 W2G       0.020700
     21 H10          2.2850    12.6430    -4.3160 hc         1 W2G       0.020700
     22 H11          2.8110    14.9040    -3.8410 hc         1 W2G       0.018200
     23 H12          1.7870    15.3360    -5.1900 hc         1 W2G       0.018200
     24 C            0.7270    12.3810    -2.1740 c          1 W2G       0.927600
@<TRIPOS>BOND
     1     1     2 1   
     2     1    11 1   
     3     1    13 1   
     4     1    14 1   
     5     2     3 1   
     6     2     8 1   
     7     2    15 1   
     8     3     4 2   
     9     3     9 1   
    10     4    12 1   
    11     4    16 1   
    12     5     9 2   
    13     5    12 1   
    14     5    17 1   
    15     6    24 1   
    16     7    24 1   
    17     8    10 1   
    18     8    18 1   
    19     8    24 1   
    20     9    19 1   
    21    10    11 1   
    22    10    20 1   
    23    10    21 1   
    24    11    22 1   
    25    11    23 1   
@<TRIPOS>SUBSTRUCTURE
     1 W2G         1 TEMP              0 ****  ****    0 ROOT
