@<TRIPOS>MOLECULE
W2I
   33    34     1     0     0
SMALL
No Charge or Current Charge


@<TRIPOS>ATOM
      1 N1          28.8530    15.9560    41.7800 n3         1 W2I      -0.729600
      2 C7          29.9640    14.9940    41.5140 c6         1 W2I       0.171300
      3 C8          30.3280    14.1180    42.7450 c6         1 W2I      -0.090900
      4 C9          29.2510    14.2050    43.8470 c6         1 W2I       0.174300
      5 C1          26.9990    15.5170    39.2250 ca         1 W2I      -0.128000
      6 C5          27.5550    14.8610    36.9490 ca         1 W2I      -0.171000
      7 C6          28.6070    16.8830    40.6480 c3         1 W2I       0.215100
      8 C4          28.7920    15.5130    37.0620 ca         1 W2I       0.278000
      9 C3          29.1330    16.1670    38.2550 ca         1 W2I      -0.169000
     10 C2          28.2390    16.1740    39.3460 ca         1 W2I      -0.049300
     11 O           29.6270    13.4030    44.9730 oh         1 W2I      -0.672000
     12 C10         29.0520    15.6810    44.2780 c6         1 W2I      -0.090900
     13 C11         29.0390    16.6630    43.0730 c6         1 W2I       0.171300
     14 C           26.6560    14.8620    38.0300 ca         1 W2I      -0.078000
     15 H2          29.6790    14.3250    40.6890 h1         1 W2I       0.034700
     16 H3          30.8680    15.5290    41.1850 h1         1 W2I       0.034700
     17 H4          30.4690    13.0760    42.4280 hc         1 W2I       0.050200
     18 H5          31.2930    14.4520    43.1500 hc         1 W2I       0.050200
     19 H6          28.3040    13.8340    43.4250 h1         1 W2I       0.046700
     20 H7          26.3050    15.5120    40.0620 ha         1 W2I       0.122000
     21 H8          27.2850    14.3540    36.0260 ha         1 W2I       0.111000
     22 H9          29.4940    17.5100    40.4800 h1         1 W2I       0.037700
     23 H10         27.7840    17.5650    40.9020 h1         1 W2I       0.037700
     24 H11         30.0920    16.6690    38.3410 ha         1 W2I       0.108000
     25 H12         28.8790    13.4430    45.6080 ho         1 W2I       0.440000
     26 H13         29.8450    15.9880    44.9740 hc         1 W2I       0.050200
     27 H14         28.1070    15.7700    44.8300 hc         1 W2I       0.050200
     28 H15         29.9880    17.2190    43.0570 h1         1 W2I       0.034700
     29 H16         28.2400    17.4040    43.2310 h1         1 W2I       0.034700
     30 H17         30.6120    15.8630    36.1320 hn         1 W2I       0.442500
     31 H18         29.4800    14.9260    35.1940 hn         1 W2I       0.442500
     32 H19         25.6970    14.3550    37.9420 ha         1 W2I       0.110000
     33 N           29.6650    15.5090    36.0080 nv         1 W2I      -1.071000
@<TRIPOS>BOND
     1     1     2 1   
     2     1     7 1   
     3     1    13 1   
     4     2     3 1   
     5     2    15 1   
     6     2    16 1   
     7     3     4 1   
     8     3    17 1   
     9     3    18 1   
    10     4    11 1   
    11     4    12 1   
    12     4    19 1   
    13     5    10 ar  
    14     5    14 ar  
    15     5    20 1   
    16     6     8 ar  
    17     6    14 ar  
    18     6    21 1   
    19     7    10 1   
    20     7    22 1   
    21     7    23 1   
    22     8     9 ar  
    23     8    33 1   
    24     9    10 ar  
    25     9    24 1   
    26    11    25 1   
    27    12    13 1   
    28    12    26 1   
    29    12    27 1   
    30    13    28 1   
    31    13    29 1   
    32    14    32 1   
    33    30    33 1   
    34    31    33 1   
@<TRIPOS>SUBSTRUCTURE
     1 W2I         1 TEMP              0 ****  ****    0 ROOT
