@<TRIPOS>MOLECULE
W2I
   33    34     1     0     0
SMALL
abcg2


@<TRIPOS>ATOM
      1 N1          28.8880    15.9400    41.7560 n3         1 W2I      -0.729600
      2 C7          29.9690    14.9760    41.5120 c6         1 W2I       0.171300
      3 C8          30.3810    14.2420    42.7970 c6         1 W2I      -0.090900
      4 C9          29.2310    14.2060    43.7850 c6         1 W2I       0.174300
      5 C1          27.0710    15.5220    39.3110 ca         1 W2I      -0.128000
      6 C5          27.5040    14.8960    37.0150 ca         1 W2I      -0.171000
      7 C6          28.7370    16.8660    40.6390 c3         1 W2I       0.215100
      8 C4          28.7420    15.5480    37.0570 ca         1 W2I       0.278000
      9 C3          29.1250    16.1840    38.2470 ca         1 W2I      -0.169000
     10 C2          28.3040    16.1760    39.3670 ca         1 W2I      -0.049300
     11 O           29.6380    13.4170    44.9130 oh         1 W2I      -0.672000
     12 C10         28.8550    15.6370    44.1920 c6         1 W2I      -0.090900
     13 C11         29.0690    16.6240    43.0320 c6         1 W2I       0.171300
     14 C           26.6830    14.8880    38.1370 ca         1 W2I      -0.078000
     15 H2          29.6240    14.2620    40.7620 h1         1 W2I       0.034700
     16 H3          30.8510    15.4850    41.0880 h1         1 W2I       0.034700
     17 H4          30.7070    13.2290    42.5580 hc         1 W2I       0.050200
     18 H5          31.2240    14.7500    43.2740 hc         1 W2I       0.050200
     19 H6          28.3690    13.7220    43.3120 h1         1 W2I       0.046700
     20 H7          26.4300    15.5070    40.1830 ha         1 W2I       0.122000
     21 H8          27.1940    14.3970    36.1050 ha         1 W2I       0.111000
     22 H9          29.6740    17.4180    40.4520 h1         1 W2I       0.037700
     23 H10         27.9800    17.6020    40.9230 h1         1 W2I       0.037700
     24 H11         30.0870    16.6850    38.2910 ha         1 W2I       0.108000
     25 H12         28.9040    13.3870    45.5390 ho         1 W2I       0.440000
     26 H13         29.4810    15.9280    45.0390 hc         1 W2I       0.050200
     27 H14         27.8150    15.6620    44.5260 hc         1 W2I       0.050200
     28 H15         30.0700    17.0830    43.0980 h1         1 W2I       0.034700
     29 H16         28.3470    17.4390    43.0920 h1         1 W2I       0.034700
     30 H17         30.5350    15.7610    36.1150 hn         1 W2I       0.442500
     31 H18         29.4110    14.8710    35.2560 hn         1 W2I       0.442500
     32 H19         25.7270    14.3790    38.0890 ha         1 W2I       0.110000
     33 N           29.5530    15.6120    35.9270 nv         1 W2I      -1.071000
@<TRIPOS>BOND
     1     1     2 1   
     2     1     7 1   
     3     1    13 1   
     4     2     3 1   
     5     2    15 1   
     6     2    16 1   
     7     3     4 1   
     8     3    17 1   
     9     3    18 1   
    10     4    11 1   
    11     4    12 1   
    12     4    19 1   
    13     5    10 ar  
    14     5    14 ar  
    15     5    20 1   
    16     6     8 ar  
    17     6    14 ar  
    18     6    21 1   
    19     7    10 1   
    20     7    22 1   
    21     7    23 1   
    22     8     9 ar  
    23     8    33 1   
    24     9    10 ar  
    25     9    24 1   
    26    11    25 1   
    27    12    13 1   
    28    12    26 1   
    29    12    27 1   
    30    13    28 1   
    31    13    29 1   
    32    14    32 1   
    33    30    33 1   
    34    31    33 1   
@<TRIPOS>SUBSTRUCTURE
     1 W2I         1 TEMP              0 ****  ****    0 ROOT
