@<TRIPOS>MOLECULE
W2J
   24    24     1     0     0
SMALL
bcc


@<TRIPOS>ATOM
      1 C4           6.7040    25.1950    17.4310 c6         1 W2J      -0.097700
      2 C5           7.7690    26.1690    16.9410 c3         1 W2J      -0.084100
      3 C6           7.3170    23.8900    17.9660 c6         1 W2J      -0.075400
      4 C1           7.4440    22.8510    16.8590 c6         1 W2J      -0.097700
      5 C3           5.6970    24.8730    16.3090 c6         1 W2J       0.149800
      6 N            5.0630    23.5760    16.4520 n7         1 W2J      -0.789200
      7 C2           6.0360    22.4910    16.3390 c6         1 W2J       0.159800
      8 H1           6.1580    25.6730    18.2500 hc         1 W2J       0.045700
      9 H2           8.4130    26.4970    17.7590 hc         1 W2J       0.034033
     10 H3           8.4040    25.7070    16.1810 hc         1 W2J       0.034033
     11 H4           7.3190    27.0590    16.4960 hc         1 W2J       0.034033
     12 H5           6.6960    23.4820    18.7710 hc         1 W2J       0.039700
     13 H6           8.2930    24.0960    18.4170 hc         1 W2J       0.039700
     14 H7           8.7470    19.9110    16.6160 ho         1 W2J       0.403000
     15 H10          8.0260    23.2970    16.0420 hc         1 W2J       0.064700
     16 H11          6.2070    24.8890    15.3390 h1         1 W2J       0.052700
     17 H12          4.9320    25.6510    16.2610 h1         1 W2J       0.052700
     18 H13          4.6180    23.5300    17.3600 hn         1 W2J       0.344800
     19 H15          5.6460    21.6360    16.8970 h1         1 W2J       0.054200
     20 H16          6.1010    22.1760    15.2930 h1         1 W2J       0.054200
     21 C            8.1990    21.6270    17.3400 c3         1 W2J       0.145400
     22 H8           7.6670    21.1960    18.2010 h1         1 W2J       0.016200
     23 O            8.3040    20.6960    16.2830 oh         1 W2J      -0.598800
     24 H9           9.1910    21.9310    17.7010 h1         1 W2J       0.016200
@<TRIPOS>BOND
     1     1     2 1   
     2     1     3 1   
     3     1     5 1   
     4     1     8 1   
     5     2     9 1   
     6     2    10 1   
     7     2    11 1   
     8     3     4 1   
     9     3    12 1   
    10     3    13 1   
    11     4     7 1   
    12     4    15 1   
    13     4    21 1   
    14     5     6 1   
    15     5    16 1   
    16     5    17 1   
    17     6     7 1   
    18     6    18 1   
    19     7    19 1   
    20     7    20 1   
    21    14    23 1   
    22    21    22 1   
    23    21    23 1   
    24    21    24 1   
@<TRIPOS>SUBSTRUCTURE
     1 W2J         1 TEMP              0 ****  ****    0 ROOT
