@<TRIPOS>MOLECULE
W2J
   24    24     1     0     0
SMALL
No Charge or Current Charge


@<TRIPOS>ATOM
      1 C4           6.6940    25.2120    17.4170 c6         1 W2J      -0.097700
      2 C5           7.7660    26.2170    16.9130 c3         1 W2J      -0.084100
      3 C6           7.3360    23.9020    17.9740 c6         1 W2J      -0.075400
      4 C1           7.4400    22.8180    16.8690 c6         1 W2J      -0.097700
      5 C3           5.6420    24.9240    16.3000 c6         1 W2J       0.149800
      6 N            5.0370    23.5830    16.4610 n7         1 W2J      -0.844400
      7 C2           6.0280    22.4810    16.2920 c6         1 W2J       0.159800
      8 H1           6.1830    25.7120    18.2510 hc         1 W2J       0.045700
      9 H2           8.4640    26.4880    17.7140 hc         1 W2J       0.034033
     10 H3           8.3530    25.7980    16.0870 hc         1 W2J       0.034033
     11 H4           7.3010    27.1440    16.5550 hc         1 W2J       0.034033
     12 H5           6.7230    23.5170    18.8010 hc         1 W2J       0.039700
     13 H6           8.3250    24.1120    18.4050 hc         1 W2J       0.039700
     14 H7           8.8720    19.8410    16.7040 ho         1 W2J       0.442000
     15 H10          8.0550    23.2270    16.0550 hc         1 W2J       0.064700
     16 H11          6.1220    24.9790    15.3110 h1         1 W2J       0.052700
     17 H12          4.8600    25.6980    16.3250 h1         1 W2J       0.052700
     18 H13          4.6700    23.5330    17.4180 hn         1 W2J       0.400000
     19 H15          5.6290    21.5780    16.7790 h1         1 W2J       0.054200
     20 H16          6.1360    22.2430    15.2220 h1         1 W2J       0.054200
     21 C            8.1820    21.5480    17.3680 c3         1 W2J       0.168600
     22 H8           7.6010    21.0960    18.1840 h1         1 W2J       0.016200
     23 O            8.3780    20.5980    16.3160 oh         1 W2J      -0.661000
     24 H9           9.1540    21.8510    17.7810 h1         1 W2J       0.016200
@<TRIPOS>BOND
     1     1     2 1   
     2     1     3 1   
     3     1     5 1   
     4     1     8 1   
     5     2     9 1   
     6     2    10 1   
     7     2    11 1   
     8     3     4 1   
     9     3    12 1   
    10     3    13 1   
    11     4     7 1   
    12     4    15 1   
    13     4    21 1   
    14     5     6 1   
    15     5    16 1   
    16     5    17 1   
    17     6     7 1   
    18     6    18 1   
    19     7    19 1   
    20     7    20 1   
    21    14    23 1   
    22    21    22 1   
    23    21    23 1   
    24    21    24 1   
@<TRIPOS>SUBSTRUCTURE
     1 W2J         1 TEMP              0 ****  ****    0 ROOT
