@<TRIPOS>MOLECULE
W2K
   52    55     1     0     0
SMALL
No Charge or Current Charge


@<TRIPOS>ATOM
      1 O1           0.0690   -17.6210   -45.6550 o          1 W2K      -0.607100
      2 C5          -0.3230   -18.1640   -46.6780 c          1 W2K       0.631700
      3 C4          -1.0580   -17.3780   -47.7470 ca         1 W2K      -0.216600
      4 C3          -1.2840   -15.9970   -47.5530 ca         1 W2K      -0.017000
      5 C2          -1.9600   -15.2350   -48.5200 ca         1 W2K      -0.206000
      6 C16         -1.5310   -17.9730   -48.9420 ca         1 W2K      -0.017000
      7 C17         -2.2070   -17.2000   -49.9020 ca         1 W2K      -0.206000
      8 C1          -2.4290   -15.8290   -49.7030 ca         1 W2K       0.361000
      9 N           -3.1110   -15.0790   -50.6870 nh         1 W2K      -0.818400
     10 C18         -4.4750   -15.5050   -51.1440 c6         1 W2K       0.222800
     11 C19         -4.8400   -14.9350   -52.5540 c6         1 W2K       0.140800
     12 N4          -4.6750   -13.4510   -52.6420 n3         1 W2K      -0.698600
     13 C21         -5.0630   -12.9100   -53.9630 c3         1 W2K       0.142100
     14 C20         -3.2830   -13.0730   -52.2490 c6         1 W2K       0.140800
     15 C           -2.8850   -13.6040   -50.8330 c6         1 W2K       0.222800
     16 N1          -0.1320   -19.5110   -46.9400 ns         1 W2K      -0.399100
     17 C6           0.4870   -20.5340   -46.1970 cc         1 W2K      -0.045600
     18 C10          0.4920   -21.8530   -46.8870 c          1 W2K       0.532200
     19 O            0.0180   -22.0580   -47.9970 o          1 W2K      -0.584000
     20 N2           1.0800   -22.8530   -46.1670 ns         1 W2K      -0.347100
     21 C9           1.6440   -22.7170   -44.9080 cc         1 W2K      -0.056400
     22 C8           1.6690   -21.4940   -44.2460 cd         1 W2K      -0.095200
     23 C7           1.0450   -20.3710   -44.9330 cd         1 W2K      -0.144000
     24 C11          2.2600   -21.3650   -42.8830 ca         1 W2K       0.018200
     25 C15          2.4730   -20.1090   -42.2700 ca         1 W2K      -0.161500
     26 C14          3.0350   -20.0370   -40.9850 ca         1 W2K       0.334900
     27 N3           3.3960   -21.1260   -40.2730 nb         1 W2K      -0.663000
     28 C13          3.1990   -22.3330   -40.8460 ca         1 W2K       0.334900
     29 C12          2.6460   -22.4960   -42.1260 ca         1 W2K      -0.161500
     30 H3          -0.9370   -15.5040   -46.6460 ha         1 W2K       0.122000
     31 H16         -1.3850   -19.0290   -49.1520 ha         1 W2K       0.122000
     32 H2          -2.1250   -14.1790   -48.3320 ha         1 W2K       0.115500
     33 H17         -2.5490   -17.6740   -50.8170 ha         1 W2K       0.115500
     34 H181        -4.5500   -16.6010   -51.1870 h1         1 W2K       0.051700
     35 H182        -5.2280   -15.1600   -50.4210 h1         1 W2K       0.051700
     36 HC1         -3.4730   -13.0610   -50.0770 h1         1 W2K       0.051700
     37 HC2         -1.8260   -13.3620   -50.6610 h1         1 W2K       0.051700
     38 H191        -4.2020   -15.4290   -53.3020 h1         1 W2K       0.044700
     39 H192        -5.8780   -15.2170   -52.7850 h1         1 W2K       0.044700
     40 H211        -4.9740   -11.8160   -53.9750 h1         1 W2K       0.035700
     41 H212        -4.4220   -13.3160   -54.7570 h1         1 W2K       0.035700
     42 H213        -6.1040   -13.1670   -54.1970 h1         1 W2K       0.035700
     43 H201        -2.5650   -13.4710   -52.9810 h1         1 W2K       0.044700
     44 H202        -3.1690   -11.9790   -52.2540 h1         1 W2K       0.044700
     45 H7           1.0030   -19.4080   -44.4480 ha         1 W2K       0.228000
     46 H9           2.0560   -23.6530   -44.5480 h4         1 W2K       0.206000
     47 H15          2.2370   -19.1760   -42.7660 ha         1 W2K       0.123500
     48 H12          2.5150   -23.5070   -42.4930 ha         1 W2K       0.123500
     49 H14          3.2070   -19.0720   -40.5100 h4         1 W2K       0.019600
     50 H13          3.4930   -23.2010   -40.2560 h4         1 W2K       0.019600
     51 HN2          1.0870   -23.7570   -46.6250 hn         1 W2K       0.333500
     52 HN1         -0.5060   -19.7940   -47.8370 hn         1 W2K       0.341500
@<TRIPOS>BOND
     1     1     2 2   
     2     2     3 1   
     3     2    16 1   
     4     3     4 ar  
     5     3     6 ar  
     6     4     5 ar  
     7     4    30 1   
     8     5     8 ar  
     9     5    32 1   
    10     6     7 ar  
    11     6    31 1   
    12     7     8 ar  
    13     7    33 1   
    14     8     9 1   
    15     9    10 1   
    16     9    15 1   
    17    10    11 1   
    18    10    34 1   
    19    10    35 1   
    20    11    12 1   
    21    11    38 1   
    22    11    39 1   
    23    12    13 1   
    24    12    14 1   
    25    13    40 1   
    26    13    41 1   
    27    13    42 1   
    28    14    15 1   
    29    14    43 1   
    30    14    44 1   
    31    15    36 1   
    32    15    37 1   
    33    16    17 1   
    34    16    52 1   
    35    17    18 1   
    36    17    23 2   
    37    18    19 2   
    38    18    20 1   
    39    20    21 1   
    40    20    51 1   
    41    21    22 2   
    42    21    46 1   
    43    22    23 1   
    44    22    24 1   
    45    23    45 1   
    46    24    25 ar  
    47    24    29 ar  
    48    25    26 ar  
    49    25    47 1   
    50    26    27 ar  
    51    26    49 1   
    52    27    28 ar  
    53    28    29 ar  
    54    28    50 1   
    55    29    48 1   
@<TRIPOS>SUBSTRUCTURE
     1 W2K         1 TEMP              0 ****  ****    0 ROOT
