@<TRIPOS>MOLECULE
W2K
   52    55     1     0     0
SMALL
abcg2


@<TRIPOS>ATOM
      1 O1           0.1840   -17.7620   -45.8610 o          1 W2K      -0.607100
      2 C5          -0.3410   -18.3220   -46.8250 c          1 W2K       0.631700
      3 C4          -1.0480   -17.5620   -47.8840 ca         1 W2K      -0.216600
      4 C3          -1.2460   -16.1910   -47.6840 ca         1 W2K      -0.017000
      5 C2          -1.8690   -15.3970   -48.6230 ca         1 W2K      -0.206000
      6 C16         -1.5990   -18.1170   -49.0460 ca         1 W2K      -0.017000
      7 C17         -2.2560   -17.3440   -49.9810 ca         1 W2K      -0.206000
      8 C1          -2.3990   -15.9440   -49.8180 ca         1 W2K       0.361000
      9 N           -2.9980   -15.1590   -50.7720 nh         1 W2K      -0.818400
     10 C18         -3.9340   -15.7790   -51.7220 c6         1 W2K       0.222800
     11 C19         -4.2580   -14.8680   -52.8860 c6         1 W2K       0.140800
     12 N4          -4.6720   -13.5490   -52.4120 n3         1 W2K      -0.698600
     13 C21         -5.1380   -12.7230   -53.5210 c3         1 W2K       0.142100
     14 C20         -3.5220   -12.9390   -51.7520 c6         1 W2K       0.140800
     15 C           -3.1730   -13.7220   -50.4990 c6         1 W2K       0.222800
     16 N1          -0.3090   -19.6860   -46.9710 ns         1 W2K      -0.399100
     17 C6           0.3340   -20.6250   -46.1730 cc         1 W2K      -0.045600
     18 C10          0.1140   -21.9860   -46.6420 c          1 W2K       0.532200
     19 O           -0.4890   -22.2640   -47.6880 o          1 W2K      -0.584000
     20 N2           0.6270   -22.9570   -45.8200 ns         1 W2K      -0.347100
     21 C9           1.3120   -22.7370   -44.6680 cc         1 W2K      -0.056400
     22 C8           1.5440   -21.4620   -44.2320 cd         1 W2K      -0.095200
     23 C7           1.0150   -20.3920   -45.0100 cd         1 W2K      -0.144000
     24 C11          2.2360   -21.2040   -42.9540 ca         1 W2K       0.018200
     25 C15          2.8580   -19.9800   -42.6940 ca         1 W2K      -0.161500
     26 C14          3.5230   -19.7860   -41.4920 ca         1 W2K       0.334900
     27 N3           3.6640   -20.7310   -40.5600 nb         1 W2K      -0.663000
     28 C13          3.0810   -21.9120   -40.8130 ca         1 W2K       0.334900
     29 C12          2.3750   -22.1920   -41.9710 ca         1 W2K      -0.161500
     30 H3          -0.8500   -15.7360   -46.7860 ha         1 W2K       0.122000
     31 H16         -1.6010   -19.1860   -49.2170 ha         1 W2K       0.122000
     32 H2          -1.9860   -14.3450   -48.4160 ha         1 W2K       0.115500
     33 H17         -2.6380   -17.8410   -50.8600 ha         1 W2K       0.115500
     34 H181        -3.4690   -16.6780   -52.1140 h1         1 W2K       0.051700
     35 H182        -4.8500   -16.0630   -51.1900 h1         1 W2K       0.051700
     36 HC1         -3.9850   -13.5950   -49.7730 h1         1 W2K       0.051700
     37 HC2         -2.2250   -13.3560   -50.1050 h1         1 W2K       0.051700
     38 H191        -3.3930   -14.7890   -53.5660 h1         1 W2K       0.044700
     39 H192        -5.0750   -15.3020   -53.4640 h1         1 W2K       0.044700
     40 H211        -5.4820   -11.7580   -53.1430 h1         1 W2K       0.035700
     41 H212        -4.3490   -12.5380   -54.2670 h1         1 W2K       0.035700
     42 H213        -5.9650   -13.2240   -54.0270 h1         1 W2K       0.035700
     43 H201        -2.6520   -12.8390   -52.4240 h1         1 W2K       0.044700
     44 H202        -3.8200   -11.9400   -51.4250 h1         1 W2K       0.044700
     45 H7           1.1880   -19.3690   -44.7190 ha         1 W2K       0.228000
     46 H9           1.6590   -23.6270   -44.1680 h4         1 W2K       0.206000
     47 H15          2.8250   -19.1780   -43.4190 ha         1 W2K       0.123500
     48 H12          1.9470   -23.1780   -42.0840 ha         1 W2K       0.123500
     49 H14          3.9980   -18.8300   -41.2930 h4         1 W2K       0.019600
     50 H13          3.2050   -22.6780   -40.0560 h4         1 W2K       0.019600
     51 HN2          0.5290   -23.9150   -46.1440 hn         1 W2K       0.333500
     52 HN1         -0.6650   -20.0870   -47.8260 hn         1 W2K       0.341500
@<TRIPOS>BOND
     1     1     2 2   
     2     2     3 1   
     3     2    16 1   
     4     3     4 ar  
     5     3     6 ar  
     6     4     5 ar  
     7     4    30 1   
     8     5     8 ar  
     9     5    32 1   
    10     6     7 ar  
    11     6    31 1   
    12     7     8 ar  
    13     7    33 1   
    14     8     9 1   
    15     9    10 1   
    16     9    15 1   
    17    10    11 1   
    18    10    34 1   
    19    10    35 1   
    20    11    12 1   
    21    11    38 1   
    22    11    39 1   
    23    12    13 1   
    24    12    14 1   
    25    13    40 1   
    26    13    41 1   
    27    13    42 1   
    28    14    15 1   
    29    14    43 1   
    30    14    44 1   
    31    15    36 1   
    32    15    37 1   
    33    16    17 1   
    34    16    52 1   
    35    17    18 1   
    36    17    23 2   
    37    18    19 2   
    38    18    20 1   
    39    20    21 1   
    40    20    51 1   
    41    21    22 2   
    42    21    46 1   
    43    22    23 1   
    44    22    24 1   
    45    23    45 1   
    46    24    25 ar  
    47    24    29 ar  
    48    25    26 ar  
    49    25    47 1   
    50    26    27 ar  
    51    26    49 1   
    52    27    28 ar  
    53    28    29 ar  
    54    28    50 1   
    55    29    48 1   
@<TRIPOS>SUBSTRUCTURE
     1 W2K         1 TEMP              0 ****  ****    0 ROOT
