@<TRIPOS>MOLECULE
W2L
   31    30     1     0     0
SMALL
No Charge or Current Charge


@<TRIPOS>ATOM
      1 CAA         10.7090    -4.3690    16.1440 c3         1 W2L      -0.087100
      2 CAB         11.5470    -5.4000    16.9340 c3         1 W2L      -0.069400
      3 CAC         11.6650    -5.1480    18.4650 c3         1 W2L      -0.061700
      4 CAD         10.2890    -5.2360    19.1720 c3         1 W2L      -0.082100
      5 CAE         12.4310    -3.8270    18.7850 c3         1 W2L      -0.069400
      6 CAF         12.7710    -3.5620    20.2840 c3         1 W2L      -0.061700
      7 CAG         13.6680    -4.6630    20.9040 c3         1 W2L      -0.080100
      8 CAH         13.3530    -2.1360    20.5150 c3         1 W2L      -0.054400
      9 CAI         14.7210    -1.8360    19.8420 c3         1 W2L      -0.200400
     10 CAJ         15.1810    -0.4090    20.1960 c          1 W2L       0.705000
     11 OAK         15.8450    -0.2510    21.2090 o          1 W2L      -0.746000
     12 OAL         14.8220     0.5090    19.4750 o          1 W2L      -0.746000
     13 HAB         10.6700    -4.6500    15.0850 hc         1 W2L       0.029033
     14 HAA          9.6790    -4.3240    16.5170 hc         1 W2L       0.029033
     15 HAC         11.1490    -3.3670    16.2080 hc         1 W2L       0.029033
     16 HAD         11.1130    -6.3950    16.7730 hc         1 W2L       0.028700
     17 HAE         12.5540    -5.4360    16.5010 hc         1 W2L       0.028700
     18 HAF         12.2680    -5.9790    18.8480 hc         1 W2L       0.037700
     19 HAI         10.4090    -5.3020    20.2600 hc         1 W2L       0.025700
     20 HAH          9.6720    -4.3580    18.9490 hc         1 W2L       0.025700
     21 HAG          9.7440    -6.1310    18.8490 hc         1 W2L       0.025700
     22 HAJ         13.3630    -3.8270    18.2090 hc         1 W2L       0.044200
     23 HAK         11.8400    -2.9800    18.4160 hc         1 W2L       0.044200
     24 HAL         11.8280    -3.5790    20.8420 hc         1 W2L       0.020700
     25 HAO         13.9630    -4.3940    21.9250 hc         1 W2L       0.023033
     26 HAN         13.1350    -5.6190    20.9590 hc         1 W2L       0.023033
     27 HAM         14.5780    -4.8130    20.3110 hc         1 W2L       0.023033
     28 HAP         13.4510    -1.9720    21.5960 hc         1 W2L       0.039700
     29 HAQ         12.6200    -1.3980    20.1660 hc         1 W2L       0.039700
     30 HAS         14.5600    -1.9180    18.7610 hc         1 W2L       0.018200
     31 HAR         15.4320    -2.5680    20.2410 hc         1 W2L       0.018200
@<TRIPOS>BOND
     1     1     2 1   
     2     1    13 1   
     3     1    14 1   
     4     1    15 1   
     5     2     3 1   
     6     2    16 1   
     7     2    17 1   
     8     3     4 1   
     9     3     5 1   
    10     3    18 1   
    11     4    19 1   
    12     4    20 1   
    13     4    21 1   
    14     5     6 1   
    15     5    22 1   
    16     5    23 1   
    17     6     7 1   
    18     6     8 1   
    19     6    24 1   
    20     7    25 1   
    21     7    26 1   
    22     7    27 1   
    23     8     9 1   
    24     8    28 1   
    25     8    29 1   
    26     9    10 1   
    27     9    30 1   
    28     9    31 1   
    29    10    11 1   
    30    10    12 1   
@<TRIPOS>SUBSTRUCTURE
     1 W2L         1 TEMP              0 ****  ****    0 ROOT
