@<TRIPOS>MOLECULE
W2L
   31    30     1     0     0
SMALL
abcg2


@<TRIPOS>ATOM
      1 CAA         10.7120    -4.3150    16.2220 c3         1 W2L      -0.087100
      2 CAB         11.5430    -5.3570    16.9730 c3         1 W2L      -0.069400
      3 CAC         11.6690    -5.1440    18.4930 c3         1 W2L      -0.061700
      4 CAD         10.3100    -5.2300    19.1930 c3         1 W2L      -0.082100
      5 CAE         12.4080    -3.8370    18.8160 c3         1 W2L      -0.069400
      6 CAF         12.7740    -3.6150    20.2910 c3         1 W2L      -0.061700
      7 CAG         13.7420    -4.6790    20.8160 c3         1 W2L      -0.080100
      8 CAH         13.3010    -2.1900    20.5380 c3         1 W2L      -0.054400
      9 CAI         14.6100    -1.8330    19.8360 c3         1 W2L      -0.200400
     10 CAJ         15.1340    -0.4130    20.1260 c          1 W2L       0.705000
     11 OAK         14.9600     0.0570    21.2810 o          1 W2L      -0.746000
     12 OAL         15.7350     0.1720    19.1830 o          1 W2L      -0.746000
     13 HAB         10.6620    -4.5620    15.1590 hc         1 W2L       0.029033
     14 HAA          9.6880    -4.2690    16.5980 hc         1 W2L       0.029033
     15 HAC         11.1430    -3.3160    16.3090 hc         1 W2L       0.029033
     16 HAD         11.1090    -6.3480    16.8000 hc         1 W2L       0.028700
     17 HAE         12.5500    -5.3830    16.5460 hc         1 W2L       0.028700
     18 HAF         12.2800    -5.9740    18.8610 hc         1 W2L       0.037700
     19 HAI         10.4210    -5.2620    20.2780 hc         1 W2L       0.025700
     20 HAH          9.6830    -4.3680    18.9510 hc         1 W2L       0.025700
     21 HAG          9.7730    -6.1320    18.8880 hc         1 W2L       0.025700
     22 HAJ         13.3230    -3.8040    18.2160 hc         1 W2L       0.044200
     23 HAK         11.7940    -2.9930    18.4870 hc         1 W2L       0.044200
     24 HAL         11.8520    -3.6960    20.8770 hc         1 W2L       0.020700
     25 HAO         14.0440    -4.4550    21.8420 hc         1 W2L       0.023033
     26 HAN         13.2860    -5.6700    20.8130 hc         1 W2L       0.023033
     27 HAM         14.6460    -4.7300    20.2040 hc         1 W2L       0.023033
     28 HAP         13.4320    -2.0470    21.6130 hc         1 W2L       0.039700
     29 HAQ         12.5280    -1.4780    20.2250 hc         1 W2L       0.039700
     30 HAS         14.5180    -1.9450    18.7550 hc         1 W2L       0.018200
     31 HAR         15.4000    -2.5250    20.1510 hc         1 W2L       0.018200
@<TRIPOS>BOND
     1     1     2 1   
     2     1    13 1   
     3     1    14 1   
     4     1    15 1   
     5     2     3 1   
     6     2    16 1   
     7     2    17 1   
     8     3     4 1   
     9     3     5 1   
    10     3    18 1   
    11     4    19 1   
    12     4    20 1   
    13     4    21 1   
    14     5     6 1   
    15     5    22 1   
    16     5    23 1   
    17     6     7 1   
    18     6     8 1   
    19     6    24 1   
    20     7    25 1   
    21     7    26 1   
    22     7    27 1   
    23     8     9 1   
    24     8    28 1   
    25     8    29 1   
    26     9    10 1   
    27     9    30 1   
    28     9    31 1   
    29    10    11 1   
    30    10    12 1   
@<TRIPOS>SUBSTRUCTURE
     1 W2L         1 TEMP              0 ****  ****    0 ROOT
