@<TRIPOS>MOLECULE
W2M
   29    31     1     0     0
SMALL
bcc


@<TRIPOS>ATOM
      1 N1          23.3090    41.3970   -25.6060 n7         1 W2M      -0.782200
      2 C4          26.1730    35.9940   -26.2830 ca         1 W2M      -0.151000
      3 C5          27.3580    36.4130   -25.6960 ca         1 W2M      -0.099000
      4 C6          27.4450    37.6700   -25.1140 ca         1 W2M      -0.171000
      5 C7          23.9670    39.0280   -25.5880 c6         1 W2M      -0.012100
      6 C8          24.4270    40.4740   -25.7700 c5         1 W2M       0.095200
      7 C10         24.3280    42.0040   -27.6610 c5         1 W2M      -0.116400
      8 C           25.5230    40.7790   -24.7550 c          1 W2M       0.704500
      9 C11         25.0020    40.7140   -27.2060 c5         1 W2M      -0.091400
     10 C9          22.9940    41.9310   -26.9280 c5         1 W2M       0.144800
     11 C2          25.1280    38.0880   -25.6810 ca         1 W2M      -0.119300
     12 C3          25.0670    36.8350   -26.2730 ca         1 W2M      -0.093000
     13 C1          26.3320    38.5030   -25.1120 ca         1 W2M       0.071600
     14 N           26.3950    39.7680   -24.5240 ns         1 W2M      -0.468100
     15 H1          23.6080    42.1640   -25.0140 hn         1 W2M       0.378800
     16 H3          26.1090    35.0190   -26.7480 ha         1 W2M       0.135000
     17 H4          28.2260    35.7660   -25.6980 ha         1 W2M       0.134000
     18 H5          28.3750    38.0040   -24.6690 ha         1 W2M       0.135000
     19 H6          23.4860    38.9290   -24.6090 hc         1 W2M       0.069200
     20 H7          23.2080    38.7920   -26.3370 hc         1 W2M       0.069200
     21 H8          24.8930    42.8770   -27.3250 hc         1 W2M       0.054200
     22 H9          24.2280    42.0660   -28.7450 hc         1 W2M       0.054200
     23 H10         24.7110    39.8840   -27.8550 hc         1 W2M       0.057200
     24 H11         26.0910    40.7690   -27.2340 hc         1 W2M       0.057200
     25 H12         22.4850    42.8910   -26.8350 h1         1 W2M       0.054700
     26 H13         22.3140    41.2510   -27.4510 h1         1 W2M       0.054700
     27 H14         24.1370    36.5130   -26.7270 ha         1 W2M       0.134000
     28 H15         27.1930    39.9810   -23.9420 hn         1 W2M       0.325500
     29 O           25.6400    41.8630   -24.2100 o          1 W2M      -0.624500
@<TRIPOS>BOND
     1     1     6 1   
     2     1    10 1   
     3     1    15 1   
     4     2     3 ar  
     5     2    12 ar  
     6     2    16 1   
     7     3     4 ar  
     8     3    17 1   
     9     4    13 ar  
    10     4    18 1   
    11     5     6 1   
    12     5    11 1   
    13     5    19 1   
    14     5    20 1   
    15     6     8 1   
    16     6     9 1   
    17     7     9 1   
    18     7    10 1   
    19     7    21 1   
    20     7    22 1   
    21     8    14 1   
    22     8    29 2   
    23     9    23 1   
    24     9    24 1   
    25    10    25 1   
    26    10    26 1   
    27    11    12 ar  
    28    11    13 ar  
    29    12    27 1   
    30    13    14 1   
    31    14    28 1   
@<TRIPOS>SUBSTRUCTURE
     1 W2M         1 TEMP              0 ****  ****    0 ROOT
