@<TRIPOS>MOLECULE
W2M
   29    31     1     0     0
SMALL
No Charge or Current Charge


@<TRIPOS>ATOM
      1 N1          23.2290    41.3490   -25.6230 n7         1 W2M      -0.837400
      2 C4          26.1680    35.8480   -26.1270 ca         1 W2M      -0.133000
      3 C5          27.3810    36.2820   -25.5640 ca         1 W2M      -0.081000
      4 C6          27.4950    37.5930   -25.0710 ca         1 W2M      -0.153000
      5 C7          23.9960    38.9920   -25.7180 c6         1 W2M      -0.012100
      6 C8          24.4470    40.4790   -25.8420 c5         1 W2M       0.095200
      7 C10         24.2920    42.2220   -27.5330 c5         1 W2M      -0.116400
      8 C           25.6370    40.8550   -24.8530 c          1 W2M       0.562000
      9 C11         24.9370    40.8370   -27.2930 c5         1 W2M      -0.091400
     10 C9          22.9000    41.9490   -26.9350 c5         1 W2M       0.144800
     11 C2          25.1860    38.0360   -25.7040 ca         1 W2M      -0.119300
     12 C3          25.0680    36.7210   -26.1930 ca         1 W2M      -0.075000
     13 C1          26.4000    38.4700   -25.1470 ca         1 W2M      -0.021000
     14 N           26.5040    39.7890   -24.6600 ns         1 W2M      -0.142000
     15 H1          23.5120    42.1140   -24.9940 hn         1 W2M       0.434000
     16 H3          26.0770    34.8320   -26.5060 ha         1 W2M       0.117000
     17 H4          28.2290    35.6030   -25.5100 ha         1 W2M       0.116000
     18 H5          28.4350    37.9260   -24.6360 ha         1 W2M       0.117000
     19 H6          23.4340    38.8590   -24.7830 hc         1 W2M       0.069200
     20 H7          23.3020    38.7360   -26.5300 hc         1 W2M       0.069200
     21 H8          24.8180    43.0240   -27.0010 hc         1 W2M       0.054200
     22 H9          24.2500    42.4920   -28.5940 hc         1 W2M       0.054200
     23 H10         24.5770    40.1120   -28.0330 hc         1 W2M       0.057200
     24 H11         26.0290    40.8620   -27.3900 hc         1 W2M       0.057200
     25 H12         22.2990    42.8630   -26.8310 h1         1 W2M       0.054700
     26 H13         22.3350    41.2400   -27.5590 h1         1 W2M       0.054700
     27 H14         24.1280    36.3750   -26.6170 ha         1 W2M       0.116000
     28 H15         27.3020    39.9760   -24.0680 hn         1 W2M       0.159000
     29 O           25.7840    41.9300   -24.2800 o          1 W2M      -0.549000
@<TRIPOS>BOND
     1     1     6 1   
     2     1    10 1   
     3     1    15 1   
     4     2     3 ar  
     5     2    12 ar  
     6     2    16 1   
     7     3     4 ar  
     8     3    17 1   
     9     4    13 ar  
    10     4    18 1   
    11     5     6 1   
    12     5    11 1   
    13     5    19 1   
    14     5    20 1   
    15     6     8 1   
    16     6     9 1   
    17     7     9 1   
    18     7    10 1   
    19     7    21 1   
    20     7    22 1   
    21     8    14 1   
    22     8    29 2   
    23     9    23 1   
    24     9    24 1   
    25    10    25 1   
    26    10    26 1   
    27    11    12 ar  
    28    11    13 ar  
    29    12    27 1   
    30    13    14 1   
    31    14    28 1   
@<TRIPOS>SUBSTRUCTURE
     1 W2M         1 TEMP              0 ****  ****    0 ROOT
