@<TRIPOS>MOLECULE
W2O
   24    24     1     0     0
SMALL
abcg2


@<TRIPOS>ATOM
      1 N1          30.4730    17.4340    42.7230 n8         1 W2O      -0.980200
      2 C7          29.9590    16.5080    41.7140 c3         1 W2O       0.092500
      3 C8          28.9450    15.5540    42.3510 c          1 W2O       0.596100
      4 C1          29.2270    15.0940    37.5080 ca         1 W2O      -0.111000
      5 C5          26.9700    15.3340    38.3020 ca         1 W2O      -0.111000
      6 C6          29.2720    17.3160    40.5930 c3         1 W2O      -0.028100
      7 C4          27.4220    16.1590    39.3280 ca         1 W2O      -0.106500
      8 C3          28.7770    16.4610    39.4580 ca         1 W2O      -0.090300
      9 C2          29.6730    15.9200    38.5330 ca         1 W2O      -0.106500
     10 O           28.0760    15.9420    43.1290 o          1 W2O      -0.585100
     11 N           29.0600    14.2680    41.9750 nt         1 W2O      -0.609000
     12 C           27.8720    14.7970    37.3900 ca         1 W2O      -0.110000
     13 H1          30.9660    16.9220    43.4480 hn         1 W2O       0.401000
     14 H2          31.1570    18.0450    42.2890 hn         1 W2O       0.401000
     15 H4          30.7510    15.9040    41.2560 h1         1 W2O       0.015700
     16 H6          25.9130    15.1110    38.2160 ha         1 W2O       0.113500
     17 H7          30.0070    18.0370    40.2240 hc         1 W2O       0.066200
     18 H8          28.4490    17.8790    41.0350 hc         1 W2O       0.066200
     19 H9          26.7150    16.5720    40.0390 ha         1 W2O       0.115000
     20 H10         30.7290    16.1490    38.6190 ha         1 W2O       0.115000
     21 H11         28.3700    13.5970    42.2770 hn         1 W2O       0.314000
     22 H12         29.7500    13.9760    41.3030 hn         1 W2O       0.314000
     23 H13         27.5230    14.1560    36.5900 ha         1 W2O       0.113000
     24 H5          29.9360    14.6830    36.8000 ha         1 W2O       0.113500
@<TRIPOS>BOND
     1     1     2 1   
     2     1    13 1   
     3     1    14 1   
     4     2     3 1   
     5     2     6 1   
     6     2    15 1   
     7     3    10 2   
     8     3    11 1   
     9     4     9 ar  
    10     4    12 ar  
    11     4    24 1   
    12     5     7 ar  
    13     5    12 ar  
    14     5    16 1   
    15     6     8 1   
    16     6    17 1   
    17     6    18 1   
    18     7     8 ar  
    19     7    19 1   
    20     8     9 ar  
    21     9    20 1   
    22    11    21 1   
    23    11    22 1   
    24    12    23 1   
@<TRIPOS>SUBSTRUCTURE
     1 W2O         1 TEMP              0 ****  ****    0 ROOT
