@<TRIPOS>MOLECULE
W2O
   24    24     1     0     0
SMALL
No Charge or Current Charge


@<TRIPOS>ATOM
      1 N1          30.7160    17.5520    42.5910 n8         1 W2O      -0.980200
      2 C7          29.9700    16.5330    41.7740 c3         1 W2O       0.092500
      3 C8          29.1490    15.4610    42.5980 c          1 W2O       0.596100
      4 C1          29.3950    15.0770    37.5580 ca         1 W2O      -0.111000
      5 C5          27.0410    15.2710    38.1380 ca         1 W2O      -0.111000
      6 C6          29.0930    17.2560    40.7100 c3         1 W2O      -0.028100
      7 C4          27.3780    16.0790    39.2380 ca         1 W2O      -0.106500
      8 C3          28.7270    16.3860    39.5090 ca         1 W2O      -0.090300
      9 C2          29.7320    15.8840    38.6580 ca         1 W2O      -0.106500
     10 O           29.0690    15.4560    43.8190 o          1 W2O      -0.585100
     11 N           28.5200    14.4920    41.8910 nt         1 W2O      -0.609000
     12 C           28.0490    14.7680    37.2990 ca         1 W2O      -0.110000
     13 H1          31.3150    17.0650    43.2700 hn         1 W2O       0.401000
     14 H2          31.3840    18.0510    41.9910 hn         1 W2O       0.401000
     15 H4          30.7410    15.9650    41.2380 h1         1 W2O       0.015700
     16 H6          25.9990    15.0350    37.9360 ha         1 W2O       0.113500
     17 H7          29.6330    18.1360    40.3390 hc         1 W2O       0.066200
     18 H8          28.1920    17.6470    41.2000 hc         1 W2O       0.066200
     19 H9          26.5880    16.4610    39.8800 ha         1 W2O       0.115000
     20 H10         30.7780    16.1210    38.8470 ha         1 W2O       0.115000
     21 H11         27.9880    13.7880    42.3800 hn         1 W2O       0.314000
     22 H12         28.5670    14.4970    40.8820 hn         1 W2O       0.314000
     23 H13         27.7880    14.1440    36.4470 ha         1 W2O       0.113000
     24 H5          30.1760    14.6920    36.9070 ha         1 W2O       0.113500
@<TRIPOS>BOND
     1     1     2 1   
     2     1    13 1   
     3     1    14 1   
     4     2     3 1   
     5     2     6 1   
     6     2    15 1   
     7     3    10 2   
     8     3    11 1   
     9     4     9 ar  
    10     4    12 ar  
    11     4    24 1   
    12     5     7 ar  
    13     5    12 ar  
    14     5    16 1   
    15     6     8 1   
    16     6    17 1   
    17     6    18 1   
    18     7     8 ar  
    19     7    19 1   
    20     8     9 ar  
    21     9    20 1   
    22    11    21 1   
    23    11    22 1   
    24    12    23 1   
@<TRIPOS>SUBSTRUCTURE
     1 W2O         1 TEMP              0 ****  ****    0 ROOT
