@<TRIPOS>MOLECULE
W2P
   67    70     1     0     0
SMALL
bcc


@<TRIPOS>ATOM
      1 C1          -0.0070     1.8390     0.8510 ca         1 W2P       0.184600
      2 C2          -0.2640     0.6050     1.4430 ca         1 W2P      -0.141000
      3 C3           0.7850    -0.1670     1.9160 ca         1 W2P       0.026400
      4 C4           2.0950     0.2850     1.8300 ca         1 W2P       0.070100
      5 C5           2.3470     1.5110     1.2350 ca         1 W2P      -0.110000
      6 C6           1.3100     2.2840     0.7450 ca         1 W2P      -0.115000
      7 O7           3.1210    -0.4420     2.3620 os         1 W2P      -0.237200
      8 C8           3.6400    -1.4880     1.6620 ca         1 W2P       0.137100
      9 CL9          0.4630    -1.6960     2.6470 cl         1 W2P      -0.087400
     10 C10          4.5890    -2.2560     2.3260 ca         1 W2P      -0.128000
     11 C11          5.1730    -3.3310     1.6770 ca         1 W2P      -0.104000
     12 C12          4.8180    -3.6510     0.3760 ca         1 W2P      -0.115000
     13 C13          3.8680    -2.8740    -0.2750 ca         1 W2P      -0.163300
     14 C14          3.2740    -1.7890     0.3560 ca         1 W2P      -0.150000
     15 C15          3.4970    -3.2330    -1.6810 c3         1 W2P       0.718200
     16 F16          4.5510    -3.1520    -2.5050 f          1 W2P      -0.235633
     17 F17          3.0460    -4.4930    -1.7640 f          1 W2P      -0.235633
     18 F18          2.5450    -2.4430    -2.1860 f          1 W2P      -0.235633
     19 N19         -1.5010     6.6360     1.1490 nb         1 W2P      -0.692000
     20 C20         -0.6100     5.8220     1.6590 ca         1 W2P       0.665900
     21 N21         -0.4590     4.5200     1.4140 nb         1 W2P      -0.788000
     22 C22         -1.2610     3.9130     0.5510 ca         1 W2P       0.730200
     23 C23         -2.3300     6.0530     0.2650 ca         1 W2P       0.450100
     24 C24         -2.2510     4.6900    -0.0830 ca         1 W2P      -0.332800
     25 N25         -3.2110     4.4500    -1.0380 na         1 W2P      -0.041400
     26 C26         -3.8830     5.6130    -1.2640 cc         1 W2P      -0.102100
     27 C27         -3.3810     6.6250    -0.4950 cd         1 W2P      -0.303800
     28 C28         -3.5530     3.1960    -1.6700 c3         1 W2P       0.020300
     29 C29         -4.4790     2.3620    -0.7840 c3         1 W2P       0.075000
     30 N30         -4.7000     1.0460    -1.3250 ns         1 W2P      -0.572900
     31 C31         -3.7930     0.0670    -1.2040 c          1 W2P       0.672100
     32 C32         -4.1980    -1.2850    -1.7360 c3         1 W2P      -0.157400
     33 O33         -2.7110     0.2460    -0.6480 o          1 W2P      -0.629100
     34 N34         -1.0790     2.5770     0.3340 nu         1 W2P      -0.768300
     35 C35         -4.6370    -2.2010    -0.5920 c3         1 W2P      -0.072400
     36 C36         -5.0300    -3.5770    -1.1130 c3         1 W2P       0.166800
     37 N37         -5.4070    -4.5060    -0.0650 n3         1 W2P      -0.709600
     38 C38         -6.6650    -4.1560     0.5610 c3         1 W2P       0.149100
     39 C39         -5.4520    -5.8620    -0.5680 c3         1 W2P       0.149100
     40 H1          -1.2790     0.2460     1.5390 ha         1 W2P       0.162000
     41 H2           3.3690     1.8600     1.1530 ha         1 W2P       0.150000
     42 H3           1.5350     3.2290     0.2730 ha         1 W2P       0.154000
     43 H4           4.8640    -2.0100     3.3430 ha         1 W2P       0.153000
     44 H5           5.9100    -3.9270     2.1960 ha         1 W2P       0.140000
     45 H6           5.2820    -4.4970    -0.1140 ha         1 W2P       0.147000
     46 H7           2.5440    -1.1830    -0.1620 ha         1 W2P       0.162000
     47 H9          -4.6880     5.6330    -1.9830 h4         1 W2P       0.161000
     48 H10         -3.7130     7.6490    -0.4830 ha         1 W2P       0.172000
     49 H11         -4.0490     3.4230    -2.6130 h1         1 W2P       0.071200
     50 H12         -2.6420     2.6570    -1.9250 h1         1 W2P       0.071200
     51 H13         -4.0740     2.2800     0.2270 h1         1 W2P       0.065700
     52 H14         -5.4440     2.8600    -0.6940 h1         1 W2P       0.065700
     53 H15         -5.5620     0.8640    -1.8120 hn         1 W2P       0.324500
     54 H16         -5.0070    -1.1880    -2.4640 hc         1 W2P       0.064200
     55 H17         -3.3420    -1.7180    -2.2560 hc         1 W2P       0.064200
     56 H18         -1.8350     2.0140    -0.0410 hn         1 W2P       0.473800
     57 H19         -3.8260    -2.3100     0.1330 hc         1 W2P       0.059700
     58 H20         -5.4730    -1.7330    -0.0670 hc         1 W2P       0.059700
     59 H21         -5.8300    -3.4690    -1.8680 h1         1 W2P       0.029700
     60 H22         -4.1690    -4.0000    -1.6390 h1         1 W2P       0.029700
     61 H24         -7.5100    -4.1450    -0.1460 h1         1 W2P       0.031367
     62 H25         -6.8990    -4.8780     1.3450 h1         1 W2P       0.031367
     63 H26         -6.6130    -3.1750     1.0310 h1         1 W2P       0.031367
     64 H27         -6.2050    -6.0100    -1.3590 h1         1 W2P       0.031367
     65 H28         -4.4800    -6.1440    -0.9770 h1         1 W2P       0.031367
     66 H29         -5.6860    -6.5530     0.2430 h1         1 W2P       0.031367
     67 H8           0.0870     6.2440     2.3760 h5         1 W2P       0.047100
@<TRIPOS>BOND
     1     1     2 ar  
     2     1     6 ar  
     3     1    34 1   
     4     2     3 ar  
     5     2    40 1   
     6     3     4 ar  
     7     3     9 1   
     8     4     5 ar  
     9     4     7 1   
    10     5     6 ar  
    11     5    41 1   
    12     6    42 1   
    13     7     8 1   
    14     8    10 ar  
    15     8    14 ar  
    16    10    11 ar  
    17    10    43 1   
    18    11    12 ar  
    19    11    44 1   
    20    12    13 ar  
    21    12    45 1   
    22    13    14 ar  
    23    13    15 1   
    24    14    46 1   
    25    15    16 1   
    26    15    17 1   
    27    15    18 1   
    28    19    20 ar  
    29    19    23 ar  
    30    20    21 ar  
    31    20    67 1   
    32    21    22 ar  
    33    22    24 ar  
    34    22    34 1   
    35    23    24 ar  
    36    23    27 1   
    37    24    25 1   
    38    25    26 1   
    39    25    28 1   
    40    26    27 2   
    41    26    47 1   
    42    27    48 1   
    43    28    29 1   
    44    28    49 1   
    45    28    50 1   
    46    29    30 1   
    47    29    51 1   
    48    29    52 1   
    49    30    31 1   
    50    30    53 1   
    51    31    32 1   
    52    31    33 2   
    53    32    35 1   
    54    32    54 1   
    55    32    55 1   
    56    34    56 1   
    57    35    36 1   
    58    35    57 1   
    59    35    58 1   
    60    36    37 1   
    61    36    59 1   
    62    36    60 1   
    63    37    38 1   
    64    37    39 1   
    65    38    61 1   
    66    38    62 1   
    67    38    63 1   
    68    39    64 1   
    69    39    65 1   
    70    39    66 1   
@<TRIPOS>SUBSTRUCTURE
     1 W2P         1 TEMP              0 ****  ****    0 ROOT
