@<TRIPOS>MOLECULE
W2P
   67    70     1     0     0
SMALL
No Charge or Current Charge


@<TRIPOS>ATOM
      1 C1          -0.3560     2.1240     0.7270 ca         1 W2P       0.323000
      2 C2          -0.9380     0.9630     1.2560 ca         1 W2P      -0.123000
      3 C3          -0.1400    -0.0530     1.7990 ca         1 W2P       0.118000
      4 C4           1.2680     0.0820     1.7950 ca         1 W2P       0.070100
      5 C5           1.8540     1.2540     1.2870 ca         1 W2P      -0.092000
      6 C6           1.0430     2.2740     0.7560 ca         1 W2P      -0.097000
      7 O7           2.0870    -0.9170     2.2720 os         1 W2P      -0.237200
      8 C8           2.1170    -2.1810     1.7190 ca         1 W2P       0.137100
      9 Cl9         -0.9350    -1.4740     2.4820 cl         1 W2P      -0.179000
     10 C10          2.6040    -3.2430     2.4950 ca         1 W2P      -0.110000
     11 C11          2.6390    -4.5440     1.9660 ca         1 W2P      -0.086000
     12 C12          2.1820    -4.7850     0.6580 ca         1 W2P      -0.097000
     13 C13          1.6880    -3.7280    -0.1370 ca         1 W2P      -0.163300
     14 C14          1.6730    -2.4210     0.4000 ca         1 W2P      -0.132000
     15 C15          1.1970    -3.9880    -1.5680 c3         1 W2P       0.354300
     16 F16          2.2030    -3.8550    -2.4620 f          1 W2P      -0.114333
     17 F17          0.6950    -5.2350    -1.7240 f          1 W2P      -0.114333
     18 F18          0.2210    -3.1290    -1.9440 f          1 W2P      -0.114333
     19 N19         -1.4820     7.2000     0.8510 nb         1 W2P      -0.166000
     20 C20         -0.5050     6.3900     1.3220 ca         1 W2P       0.139900
     21 N21         -0.3790     5.0560     1.1010 nb         1 W2P      -0.262000
     22 C22         -1.3080     4.4610     0.3190 ca         1 W2P       0.401900
     23 C23         -2.3830     6.5690     0.0860 ca         1 W2P       0.121800
     24 C24         -2.3620     5.2360    -0.2190 ca         1 W2P      -0.202200
     25 N25         -3.4890     4.9540    -1.0080 na         1 W2P      -0.070700
     26 C26         -4.2540     6.1230    -1.2100 cc         1 W2P      -0.152100
     27 C27         -3.5570     7.1130    -0.5320 cd         1 W2P      -0.353800
     28 C28         -3.7710     3.6340    -1.5910 c3         1 W2P       0.049600
     29 C29         -4.3990     2.6440    -0.5780 c3         1 W2P       0.075000
     30 N30         -4.4880     1.2570    -1.0660 ns         1 W2P      -0.505900
     31 C31         -3.4190     0.4930    -1.4780 c          1 W2P       0.605100
     32 C32         -3.7350    -0.9550    -1.8540 c3         1 W2P      -0.157400
     33 O33         -2.2910     0.9510    -1.5500 o          1 W2P      -0.629100
     34 N34         -1.1830     3.0850     0.1470 nu         1 W2P      -0.961900
     35 C35         -3.1530    -1.9430    -0.8110 c3         1 W2P      -0.072400
     36 C36         -3.3430    -3.4250    -1.2070 c3         1 W2P       0.166800
     37 N37         -2.6620    -4.3970    -0.3170 n3         1 W2P      -0.709600
     38 C38         -3.1630    -4.3940     1.0780 c3         1 W2P       0.149100
     39 C39         -2.6380    -5.7600    -0.8910 c3         1 W2P       0.149100
     40 H1          -2.0170     0.8480     1.2510 ha         1 W2P       0.144000
     41 H2           2.9360     1.3640     1.2880 ha         1 W2P       0.132000
     42 H3           1.5010     3.1660     0.3390 ha         1 W2P       0.136000
     43 H4           2.9510    -3.0570     3.5080 ha         1 W2P       0.135000
     44 H5           3.0170    -5.3660     2.5690 ha         1 W2P       0.122000
     45 H6           2.2180    -5.8000     0.2650 ha         1 W2P       0.129000
     46 H7           1.3150    -1.5950    -0.2090 ha         1 W2P       0.144000
     47 H9          -5.1710     6.1470    -1.7930 h4         1 W2P       0.211000
     48 H10         -3.8610     8.1570    -0.4760 ha         1 W2P       0.222000
     49 H11         -4.4660     3.7630    -2.4300 h1         1 W2P       0.071200
     50 H12         -2.8380     3.2480    -2.0130 h1         1 W2P       0.071200
     51 H13         -3.8170     2.6440     0.3520 h1         1 W2P       0.065700
     52 H14         -5.4090     2.9920    -0.3250 h1         1 W2P       0.065700
     53 H15         -5.3920     0.7980    -1.0480 hn         1 W2P       0.324500
     54 H16         -4.8190    -1.1040    -1.9220 hc         1 W2P       0.064200
     55 H17         -3.2730    -1.1650    -2.8260 hc         1 W2P       0.064200
     56 H18         -1.8990     2.6630    -0.4470 hn         1 W2P       0.529000
     57 H19         -2.0800    -1.7490    -0.6890 hc         1 W2P       0.059700
     58 H20         -3.6260    -1.7510     0.1590 hc         1 W2P       0.059700
     59 H21         -4.4190    -3.6450    -1.2500 h1         1 W2P       0.029700
     60 H22         -2.9520    -3.5440    -2.2270 h1         1 W2P       0.029700
     61 H24         -4.2280    -4.6580     1.1130 h1         1 W2P       0.031367
     62 H25         -2.6100    -5.1200     1.6890 h1         1 W2P       0.031367
     63 H26         -3.0360    -3.4100     1.5460 h1         1 W2P       0.031367
     64 H27         -3.6550    -6.1670    -0.9790 h1         1 W2P       0.031367
     65 H28         -2.1820    -5.7530    -1.8900 h1         1 W2P       0.031367
     66 H29         -2.0500    -6.4380    -0.2580 h1         1 W2P       0.031367
     67 H8           0.2520     6.8550     1.9500 h5         1 W2P       0.047100
@<TRIPOS>BOND
     1     1     2 ar  
     2     1     6 ar  
     3     1    34 1   
     4     2     3 ar  
     5     2    40 1   
     6     3     4 ar  
     7     3     9 1   
     8     4     5 ar  
     9     4     7 1   
    10     5     6 ar  
    11     5    41 1   
    12     6    42 1   
    13     7     8 1   
    14     8    10 ar  
    15     8    14 ar  
    16    10    11 ar  
    17    10    43 1   
    18    11    12 ar  
    19    11    44 1   
    20    12    13 ar  
    21    12    45 1   
    22    13    14 ar  
    23    13    15 1   
    24    14    46 1   
    25    15    16 1   
    26    15    17 1   
    27    15    18 1   
    28    19    20 ar  
    29    19    23 ar  
    30    20    21 ar  
    31    20    67 1   
    32    21    22 ar  
    33    22    24 ar  
    34    22    34 1   
    35    23    24 ar  
    36    23    27 1   
    37    24    25 1   
    38    25    26 1   
    39    25    28 1   
    40    26    27 2   
    41    26    47 1   
    42    27    48 1   
    43    28    29 1   
    44    28    49 1   
    45    28    50 1   
    46    29    30 1   
    47    29    51 1   
    48    29    52 1   
    49    30    31 1   
    50    30    53 1   
    51    31    32 1   
    52    31    33 2   
    53    32    35 1   
    54    32    54 1   
    55    32    55 1   
    56    34    56 1   
    57    35    36 1   
    58    35    57 1   
    59    35    58 1   
    60    36    37 1   
    61    36    59 1   
    62    36    60 1   
    63    37    38 1   
    64    37    39 1   
    65    38    61 1   
    66    38    62 1   
    67    38    63 1   
    68    39    64 1   
    69    39    65 1   
    70    39    66 1   
@<TRIPOS>SUBSTRUCTURE
     1 W2P         1 TEMP              0 ****  ****    0 ROOT
