@<TRIPOS>MOLECULE
W2Q
   53    57     1     0     0
SMALL
abcg2


@<TRIPOS>ATOM
      1 C10         30.8880   -21.1430    23.3480 ca         1 W2Q      -0.159000
      2 C13         36.1610   -22.9490    21.7990 ca         1 W2Q      -0.125000
      3 C15         35.8620   -21.4210    19.9450 ca         1 W2Q      -0.039300
      4 C17         34.6470   -22.9490    23.7870 cx         1 W2Q      -0.060400
      5 C20         33.9550   -19.7640    19.9260 c3         1 W2Q       0.045600
      6 C21         34.7430   -18.4260    19.8560 c          1 W2Q       0.734000
      7 C26         31.5000   -21.0840    17.5960 cx         1 W2Q      -0.159400
      8 C28         32.5320   -21.1320    18.6660 cx         1 W2Q       0.120300
      9 C01         31.0530   -17.6530    25.6060 c6         1 W2Q      -0.113400
     10 C02         32.1260   -17.7530    24.5310 c6         1 W2Q      -0.022100
     11 C03         32.0730   -19.1010    23.8630 ca         1 W2Q      -0.161300
     12 C04         30.9240   -19.8890    23.9540 ca         1 W2Q       0.123100
     13 C06         29.7390   -18.1480    25.0430 c6         1 W2Q       0.165600
     14 C07         33.1640   -19.6000    23.1570 ca         1 W2Q      -0.043000
     15 C08         33.1490   -20.8480    22.5480 cp         1 W2Q      -0.042000
     16 C09         31.9890   -21.6140    22.6570 ca         1 W2Q      -0.077000
     17 C11         34.3420   -21.3820    21.8360 cp         1 W2Q      -0.026000
     18 C12         35.0590   -22.4200    22.4540 ca         1 W2Q      -0.063300
     19 C14         36.5520   -22.4550    20.5660 ca         1 W2Q      -0.130000
     20 C16         34.7430   -20.8700    20.5950 ca         1 W2Q      -0.020300
     21 C18         34.8740   -22.1400    25.0270 cx         1 W2Q      -0.134400
     22 C19         35.6670   -23.3900    24.7930 cx         1 W2Q      -0.134400
     23 C25         31.1260   -20.7660    19.0210 cx         1 W2Q      -0.159400
     24 O05         29.8160   -19.5060    24.6280 os         1 W2Q      -0.358100
     25 O22         34.6180   -17.7380    18.8310 o          1 W2Q      -0.708500
     26 O24         35.3920   -18.1510    20.8840 o          1 W2Q      -0.708500
     27 O27         33.5040   -20.1450    18.6420 os         1 W2Q      -0.388000
     28 H1          29.9910   -21.7460    23.4240 ha         1 W2Q       0.110000
     29 H2          36.7260   -23.7520    22.2560 ha         1 W2Q       0.093000
     30 H3          33.7280   -23.5270    23.7830 hc         1 W2Q       0.072700
     31 H4          33.0780   -19.5410    20.5500 h1         1 W2Q       0.035700
     32 H7          32.8730   -22.1170    18.9830 h1         1 W2Q       0.054700
     33 H8          30.9330   -16.6220    25.9410 hc         1 W2Q       0.045700
     34 H9          31.3300   -18.2460    26.4820 hc         1 W2Q       0.045700
     35 H10         33.1180   -17.5860    24.9540 hc         1 W2Q       0.058200
     36 H11         31.9720   -16.9650    23.7880 hc         1 W2Q       0.058200
     37 H12         29.4370   -17.5240    24.1940 h1         1 W2Q       0.043200
     38 H13         28.9420   -18.1090    25.7850 h1         1 W2Q       0.043200
     39 H14         34.0520   -18.9840    23.0750 ha         1 W2Q       0.155000
     40 H15         31.9430   -22.5910    22.1900 ha         1 W2Q       0.108000
     41 H16         37.4200   -22.8790    20.0740 ha         1 W2Q       0.093000
     42 H17         35.3850   -21.1910    24.9180 hc         1 W2Q       0.066450
     43 H18         34.1050   -22.1450    25.7880 hc         1 W2Q       0.066450
     44 H19         35.4420   -24.2630    25.3920 hc         1 W2Q       0.066450
     45 H20         36.7160   -23.2830    24.5460 hc         1 W2Q       0.066450
     46 H21         35.7550   -21.3950    17.7910 hc         1 W2Q       0.045700
     47 H22         36.3010   -19.8790    18.4700 hc         1 W2Q       0.045700
     48 H23         37.3790   -21.2660    18.4460 hc         1 W2Q       0.045700
     49 H24         30.9200   -19.7300    19.2600 hc         1 W2Q       0.066950
     50 H25         30.5320   -21.4790    19.5780 hc         1 W2Q       0.066950
     51 H5          31.5410   -20.2550    16.9000 hc         1 W2Q       0.066950
     52 C23         36.3440   -20.9580    18.5980 c3         1 W2Q      -0.042800
     53 H6          31.1630   -22.0170    17.1630 hc         1 W2Q       0.066950
@<TRIPOS>BOND
     1     1    12 ar  
     2     1    16 ar  
     3     1    28 1   
     4     2    18 ar  
     5     2    19 ar  
     6     2    29 1   
     7     3    19 ar  
     8     3    20 ar  
     9     3    52 1   
    10     4    18 1   
    11     4    21 1   
    12     4    22 1   
    13     4    30 1   
    14     5     6 1   
    15     5    20 1   
    16     5    27 1   
    17     5    31 1   
    18     6    25 1   
    19     6    26 1   
    20     7     8 1   
    21     7    23 1   
    22     7    51 1   
    23     7    53 1   
    24     8    23 1   
    25     8    27 1   
    26     8    32 1   
    27     9    10 1   
    28     9    13 1   
    29     9    33 1   
    30     9    34 1   
    31    10    11 1   
    32    10    35 1   
    33    10    36 1   
    34    11    12 ar  
    35    11    14 ar  
    36    12    24 1   
    37    13    24 1   
    38    13    37 1   
    39    13    38 1   
    40    14    15 ar  
    41    14    39 1   
    42    15    16 ar  
    43    15    17 1   
    44    16    40 1   
    45    17    18 ar  
    46    17    20 ar  
    47    19    41 1   
    48    21    22 1   
    49    21    42 1   
    50    21    43 1   
    51    22    44 1   
    52    22    45 1   
    53    23    49 1   
    54    23    50 1   
    55    46    52 1   
    56    47    52 1   
    57    48    52 1   
@<TRIPOS>SUBSTRUCTURE
     1 W2Q         1 TEMP              0 ****  ****    0 ROOT
