@<TRIPOS>MOLECULE
W2Q
   53    57     1     0     0
SMALL
No Charge or Current Charge


@<TRIPOS>ATOM
      1 C10         30.8220   -21.1100    23.1580 ca         1 W2Q      -0.159000
      2 C13         36.3000   -22.9640    21.7480 ca         1 W2Q      -0.125000
      3 C15         35.9610   -21.3830    19.9180 ca         1 W2Q      -0.039300
      4 C17         34.6800   -22.9550    23.7250 cx         1 W2Q      -0.060400
      5 C20         33.9790   -19.7160    19.9110 c3         1 W2Q       0.045600
      6 C21         34.8110   -18.3960    19.7490 c          1 W2Q       0.734000
      7 C26         31.2860   -21.2160    17.8110 cx         1 W2Q      -0.159400
      8 C28         32.4220   -21.2150    18.8020 cx         1 W2Q       0.120300
      9 C01         30.9800   -17.6600    25.6270 c6         1 W2Q      -0.113400
     10 C02         32.1640   -17.8270    24.6520 c6         1 W2Q      -0.022100
     11 C03         32.0820   -19.1510    23.8890 ca         1 W2Q      -0.161300
     12 C04         30.8730   -19.8840    23.8400 ca         1 W2Q       0.123100
     13 C06         29.6700   -18.0630    24.9230 c6         1 W2Q       0.165600
     14 C07         33.2200   -19.6500    23.2290 ca         1 W2Q      -0.043000
     15 C08         33.1780   -20.8790    22.5280 cp         1 W2Q      -0.042000
     16 C09         31.9630   -21.6020    22.5060 ca         1 W2Q      -0.077000
     17 C11         34.3930   -21.3980    21.8260 cp         1 W2Q      -0.026000
     18 C12         35.1710   -22.4480    22.3910 ca         1 W2Q      -0.063300
     19 C14         36.6910   -22.4290    20.5180 ca         1 W2Q      -0.130000
     20 C16         34.8030   -20.8540    20.5660 ca         1 W2Q      -0.020300
     21 C18         34.8250   -22.1390    24.9910 cx         1 W2Q      -0.134400
     22 C19         35.6340   -23.3980    24.8120 cx         1 W2Q      -0.134400
     23 C25         31.0360   -20.8180    19.2470 cx         1 W2Q      -0.159400
     24 O05         29.7330   -19.4340    24.4750 os         1 W2Q      -0.358100
     25 O22         34.8720   -17.8480    18.6530 o          1 W2Q      -0.708500
     26 O24         35.3580   -17.9370    20.7450 o          1 W2Q      -0.708500
     27 O27         33.3810   -20.1870    18.6700 os         1 W2Q      -0.388000
     28 H1          29.8940   -21.6750    23.1310 ha         1 W2Q       0.110000
     29 H2          36.8730   -23.7730    22.1960 ha         1 W2Q       0.093000
     30 H3          33.7730   -23.5470    23.6270 hc         1 W2Q       0.072700
     31 H4          33.1630   -19.4180    20.5770 h1         1 W2Q       0.035700
     32 H7          32.8180   -22.1740    19.1380 h1         1 W2Q       0.054700
     33 H8          30.9210   -16.6220    25.9810 hc         1 W2Q       0.045700
     34 H9          31.1300   -18.2930    26.5120 hc         1 W2Q       0.045700
     35 H10         33.1110   -17.7600    25.2050 hc         1 W2Q       0.058200
     36 H11         32.1650   -16.9980    23.9310 hc         1 W2Q       0.058200
     37 H12         29.5030   -17.4140    24.0520 h1         1 W2Q       0.043200
     38 H13         28.8150   -17.9490    25.6050 h1         1 W2Q       0.043200
     39 H14         34.1520   -19.0890    23.2550 ha         1 W2Q       0.155000
     40 H15         31.9130   -22.5490    21.9740 ha         1 W2Q       0.108000
     41 H16         37.5730   -22.8330    20.0260 ha         1 W2Q       0.093000
     42 H17         35.3480   -21.1880    24.9230 hc         1 W2Q       0.066450
     43 H18         33.9990   -22.1560    25.6970 hc         1 W2Q       0.066450
     44 H19         35.3570   -24.2670    25.4040 hc         1 W2Q       0.066450
     45 H20         36.7020   -23.2860    24.6410 hc         1 W2Q       0.066450
     46 H21         35.6790   -20.8330    17.8160 hc         1 W2Q       0.045700
     47 H22         36.8870   -19.8510    18.6720 hc         1 W2Q       0.045700
     48 H23         37.2650   -21.4930    18.1670 hc         1 W2Q       0.045700
     49 H24         30.8520   -19.7680    19.4610 hc         1 W2Q       0.066950
     50 H25         30.4920   -21.5150    19.8790 hc         1 W2Q       0.066950
     51 H5          31.2700   -20.4340    17.0570 hc         1 W2Q       0.066950
     52 C23         36.4690   -20.8590    18.5730 c3         1 W2Q      -0.042800
     53 H6          30.9110   -22.1810    17.4780 hc         1 W2Q       0.066950
@<TRIPOS>BOND
     1     1    12 ar  
     2     1    16 ar  
     3     1    28 1   
     4     2    18 ar  
     5     2    19 ar  
     6     2    29 1   
     7     3    19 ar  
     8     3    20 ar  
     9     3    52 1   
    10     4    18 1   
    11     4    21 1   
    12     4    22 1   
    13     4    30 1   
    14     5     6 1   
    15     5    20 1   
    16     5    27 1   
    17     5    31 1   
    18     6    25 1   
    19     6    26 1   
    20     7     8 1   
    21     7    23 1   
    22     7    51 1   
    23     7    53 1   
    24     8    23 1   
    25     8    27 1   
    26     8    32 1   
    27     9    10 1   
    28     9    13 1   
    29     9    33 1   
    30     9    34 1   
    31    10    11 1   
    32    10    35 1   
    33    10    36 1   
    34    11    12 ar  
    35    11    14 ar  
    36    12    24 1   
    37    13    24 1   
    38    13    37 1   
    39    13    38 1   
    40    14    15 ar  
    41    14    39 1   
    42    15    16 ar  
    43    15    17 1   
    44    16    40 1   
    45    17    18 ar  
    46    17    20 ar  
    47    19    41 1   
    48    21    22 1   
    49    21    42 1   
    50    21    43 1   
    51    22    44 1   
    52    22    45 1   
    53    23    49 1   
    54    23    50 1   
    55    46    52 1   
    56    47    52 1   
    57    48    52 1   
@<TRIPOS>SUBSTRUCTURE
     1 W2Q         1 TEMP              0 ****  ****    0 ROOT
