@<TRIPOS>MOLECULE
W2R
   73    77     1     0     0
SMALL
No Charge or Current Charge


@<TRIPOS>ATOM
      1 C1           2.7700     3.0980     0.4880 ca         1 W2R      -0.071000
      2 C2           4.0020     2.5090     0.8210 ca         1 W2R      -0.181000
      3 C3          -2.1570     0.6940     0.9570 ca         1 W2R      -0.067000
      4 C4           1.7550     2.3200    -0.0890 ca         1 W2R      -0.149000
      5 C5          -0.7830     0.5540     0.6890 ca         1 W2R      -0.158000
      6 C6          -8.6910     1.2030     2.2400 cc         1 W2R      -0.357800
      7 C7           3.2090     0.3660    -0.0030 ca         1 W2R      -0.145000
      8 C8          -2.6610     0.3230    -1.3880 ca         1 W2R      -0.119000
      9 C9          -8.8060     0.3170     1.1750 cd         1 W2R      -0.146100
     10 C10         -5.4560     2.7130     2.9440 ca         1 W2R       0.136900
     11 C11         -7.3330     1.6390     2.2820 ca         1 W2R       0.122800
     12 C12         -6.6600     1.0180     1.2640 ca         1 W2R      -0.207200
     13 C13          4.2360     1.1420     0.5790 ca         1 W2R       0.012000
     14 C14         -3.1060     0.5960    -0.0830 ca         1 W2R       0.275000
     15 C15          1.9730     0.9490    -0.3240 ca         1 W2R       0.121100
     16 C16         -0.3430     0.3140    -0.6270 ca         1 W2R       0.132100
     17 C17         -1.2900     0.1850    -1.6630 ca         1 W2R       0.105000
     18 C18         -5.2770     1.2850     1.1330 ca         1 W2R       0.396900
     19 C19          6.0510    -0.6500     0.8530 c          1 W2R       0.662100
     20 C20         10.8740    -3.2210     1.0730 c6         1 W2R      -0.078400
     21 C21          9.7930    -3.3550    -0.0270 c6         1 W2R      -0.071400
     22 C22         10.2310    -2.9750     2.4600 c6         1 W2R      -0.071400
     23 C23          8.8540    -2.1220    -0.0420 c6         1 W2R      -0.091400
     24 C24          9.2910    -1.7440     2.4290 c6         1 W2R      -0.091400
     25 C25          8.1940    -1.8960     1.3440 c6         1 W2R       0.121700
     26 C27         -6.4550    -1.8760    -0.3900 c3         1 W2R       0.133600
     27 C28         -4.4680    -3.8260    -2.9260 c3         1 W2R       0.163600
     28 C29         -5.0440    -3.4830    -1.5260 c3         1 W2R       0.161600
     29 N30         -6.7750     2.4950     3.1500 nb         1 W2R      -0.165000
     30 N31         -4.6830     2.1530     1.9800 nb         1 W2R      -0.258000
     31 N32         -7.5420     0.1940     0.5520 na         1 W2R      -0.070700
     32 N34          5.5090     0.6210     0.9370 ns         1 W2R      -0.165000
     33 N35          7.3430    -0.7000     1.3200 ns         1 W2R      -0.519900
     34 O36          5.4750    -1.6380     0.4210 o          1 W2R      -0.619100
     35 O37         -3.5410    -2.8210    -3.3800 oh         1 W2R      -0.707000
     36 O38          1.0000     0.1650    -0.9010 os         1 W2R      -0.237200
     37 O39         -5.8710    -2.3060    -1.6300 os         1 W2R      -0.449000
     38 Cl1         -0.7720    -0.1360    -3.3180 cl         1 W2R      -0.181000
     39 H1           2.6050     4.1570     0.6740 ha         1 W2R       0.117000
     40 H2           4.7810     3.1230     1.2670 ha         1 W2R       0.109000
     41 H3          -2.4760     0.8560     1.9810 ha         1 W2R       0.136000
     42 H4           0.8080     2.7820    -0.3550 ha         1 W2R       0.134000
     43 H5          -0.0650     0.6240     1.5030 ha         1 W2R       0.131000
     44 H6          -9.4940     1.5050     2.9090 ha         1 W2R       0.221000
     45 H7           3.3440    -0.6890    -0.2120 ha         1 W2R       0.168000
     46 H8          -3.3780     0.2210    -2.1980 ha         1 W2R       0.128000
     47 H9          -9.6790    -0.2200     0.8110 h4         1 W2R       0.215000
     48 H10         -4.9640     3.4060     3.6240 h5         1 W2R       0.046100
     49 H11         11.4920    -4.1290     1.1030 hc         1 W2R       0.040700
     50 H12         11.5510    -2.3910     0.8270 hc         1 W2R       0.040700
     51 H13         10.2730    -3.4700    -1.0090 hc         1 W2R       0.043950
     52 H14          9.2040    -4.2670     0.1410 hc         1 W2R       0.043950
     53 H15          9.6660    -3.8660     2.7690 hc         1 W2R       0.043950
     54 H16         11.0170    -2.8270     3.2140 hc         1 W2R       0.043950
     55 H17          9.4240    -1.2290    -0.3350 hc         1 W2R       0.044700
     56 H18          8.0790    -2.2630    -0.8070 hc         1 W2R       0.044700
     57 H19          8.8240    -1.6150     3.4150 hc         1 W2R       0.044700
     58 H20          9.8820    -0.8360     2.2420 hc         1 W2R       0.044700
     59 H21          7.5690    -2.7680     1.5920 h1         1 W2R       0.083700
     60 H22         -6.6530     0.0730    -1.3490 h1         1 W2R       0.068700
     61 H23         -8.1630    -0.8190    -1.1780 h1         1 W2R       0.068700
     62 H24         -5.6730    -1.6970     0.3590 h1         1 W2R       0.038700
     63 H25         -7.1430    -2.6320     0.0110 h1         1 W2R       0.038700
     64 H26         -3.9620    -4.7990    -2.8630 h1         1 W2R       0.026200
     65 H27         -5.2990    -3.9330    -3.6360 h1         1 W2R       0.026200
     66 H28         -5.6360    -4.3350    -1.1670 h1         1 W2R       0.034200
     67 H29         -4.2170    -3.3210    -0.8210 h1         1 W2R       0.034200
     68 H30         -5.0390     0.2930    -0.6040 hn         1 W2R       0.496000
     69 H31          6.1340     1.3150     1.3250 hn         1 W2R       0.144000
     70 H32          7.7360     0.1680     1.6600 hn         1 W2R       0.303500
     71 H33         -3.2610    -3.0790    -4.2890 ho         1 W2R       0.503000
     72 N33         -4.4860     0.7130     0.1360 nu         1 W2R      -0.946900
     73 C26         -7.2240    -0.5690    -0.6680 c3         1 W2R       0.072600
@<TRIPOS>BOND
     1     1     2 ar  
     2     1     4 ar  
     3     1    39 1   
     4     2    13 ar  
     5     2    40 1   
     6     3     5 ar  
     7     3    14 ar  
     8     3    41 1   
     9     4    15 ar  
    10     4    42 1   
    11     5    16 ar  
    12     5    43 1   
    13     6     9 2   
    14     6    11 1   
    15     6    44 1   
    16     7    13 ar  
    17     7    15 ar  
    18     7    45 1   
    19     8    14 ar  
    20     8    17 ar  
    21     8    46 1   
    22     9    31 1   
    23     9    47 1   
    24    10    29 ar  
    25    10    30 ar  
    26    10    48 1   
    27    11    12 ar  
    28    11    29 ar  
    29    12    18 ar  
    30    12    31 1   
    31    13    32 1   
    32    14    72 1   
    33    15    36 1   
    34    16    17 ar  
    35    16    36 1   
    36    17    38 1   
    37    18    30 ar  
    38    18    72 1   
    39    19    32 1   
    40    19    33 1   
    41    19    34 2   
    42    20    21 1   
    43    20    22 1   
    44    20    49 1   
    45    20    50 1   
    46    21    23 1   
    47    21    51 1   
    48    21    52 1   
    49    22    24 1   
    50    22    53 1   
    51    22    54 1   
    52    23    25 1   
    53    23    55 1   
    54    23    56 1   
    55    24    25 1   
    56    24    57 1   
    57    24    58 1   
    58    25    33 1   
    59    25    59 1   
    60    26    37 1   
    61    26    62 1   
    62    26    63 1   
    63    26    73 1   
    64    27    28 1   
    65    27    35 1   
    66    27    64 1   
    67    27    65 1   
    68    28    37 1   
    69    28    66 1   
    70    28    67 1   
    71    31    73 1   
    72    32    69 1   
    73    33    70 1   
    74    35    71 1   
    75    60    73 1   
    76    61    73 1   
    77    68    72 1   
@<TRIPOS>SUBSTRUCTURE
     1 W2R         1 TEMP              0 ****  ****    0 ROOT
