@<TRIPOS>MOLECULE
W2R
   73    77     1     0     0
SMALL
bcc


@<TRIPOS>ATOM
      1 C1           3.1770     4.3700     0.7630 ca         1 W2R      -0.089000
      2 C2           4.1330     3.4440     1.1390 ca         1 W2R      -0.199000
      3 C3          -1.6000     1.3600     0.4890 ca         1 W2R      -0.085000
      4 C4           2.1830     4.0400    -0.1480 ca         1 W2R      -0.167000
      5 C5          -0.3290     1.7910     0.1460 ca         1 W2R      -0.176000
      6 C6          -7.9280     0.3680     2.1100 cc         1 W2R      -0.307800
      7 C7           3.1260     1.8050    -0.3070 ca         1 W2R      -0.163000
      8 C8          -2.2180     1.3530    -1.8270 ca         1 W2R      -0.137000
      9 C9          -7.8400    -0.5870     1.1360 cd         1 W2R      -0.096100
     10 C10         -5.0750     2.5300     2.5360 ca         1 W2R       0.662900
     11 C11         -6.7050     1.0840     2.0660 ca         1 W2R       0.451100
     12 C12         -5.9270     0.5210     1.0390 ca         1 W2R      -0.337800
     13 C13          4.1240     2.1480     0.6080 ca         1 W2R       0.104600
     14 C14         -2.5610     1.1450    -0.4940 ca         1 W2R       0.136600
     15 C15          2.1850     2.7570    -0.6650 ca         1 W2R       0.121100
     16 C16          0.0200     2.0010    -1.1830 ca         1 W2R       0.132100
     17 C17         -0.9410     1.7660    -2.1620 ca         1 W2R       0.013400
     18 C18         -4.6640     1.0920     0.7950 ca         1 W2R       0.725200
     19 C19          5.3590    -0.0160     0.6640 c          1 W2R       0.796100
     20 C20          9.0150    -3.9520     0.8210 c6         1 W2R      -0.078400
     21 C21          8.4470    -3.2940    -0.4320 c6         1 W2R      -0.071400
     22 C22          7.9860    -3.9640     1.9460 c6         1 W2R      -0.071400
     23 C23          7.9300    -1.8900    -0.1310 c6         1 W2R      -0.091400
     24 C24          7.4670    -2.5610     2.2480 c6         1 W2R      -0.091400
     25 C25          6.8930    -1.9100     0.9930 c6         1 W2R       0.121700
     26 C27         -5.2380    -2.4870     0.1570 c3         1 W2R       0.110400
     27 C28         -3.6000    -5.3340    -1.4550 c3         1 W2R       0.140400
     28 C29         -3.9440    -4.3660    -0.3530 c3         1 W2R       0.138400
     29 N30         -6.2800     2.1080     2.8300 nb         1 W2R      -0.691000
     30 N31         -4.2630     2.0850     1.5730 nb         1 W2R      -0.784000
     31 N32         -6.6490    -0.5060     0.4780 na         1 W2R      -0.041400
     32 N34          5.1210     1.2860     1.0440 ns         1 W2R      -0.491100
     33 N35          6.4040    -0.5820     1.3090 ns         1 W2R      -0.586900
     34 O36          4.6780    -0.6090    -0.1620 o          1 W2R      -0.619100
     35 O37         -2.9250    -4.6530    -2.4880 oh         1 W2R      -0.584800
     36 O38          1.2410     2.4040    -1.6040 os         1 W2R      -0.237200
     37 O39         -4.8660    -3.4120    -0.8250 os         1 W2R      -0.402600
     38 CL1         -0.5300     2.0100    -3.8220 cl         1 W2R      -0.089400
     39 H1           3.2090     5.3650     1.1860 ha         1 W2R       0.135000
     40 H2           4.9020     3.7270     1.8480 ha         1 W2R       0.127000
     41 H3          -1.8280     1.1850     1.5290 ha         1 W2R       0.154000
     42 H4           1.4350     4.7620    -0.4500 ha         1 W2R       0.152000
     43 H5           0.3990     1.9450     0.9320 ha         1 W2R       0.149000
     44 H6          -8.7620     0.5360     2.7720 ha         1 W2R       0.171000
     45 H7           3.0780     0.8200    -0.7410 ha         1 W2R       0.186000
     46 H8          -2.9490     1.1960    -2.6100 ha         1 W2R       0.146000
     47 H9          -8.5560    -1.3440     0.8540 h4         1 W2R       0.165000
     48 H10         -4.6800     3.3450     3.1340 h5         1 W2R       0.046100
     49 H11          9.3440    -4.9700     0.5990 hc         1 W2R       0.040700
     50 H12          9.9050    -3.4020     1.1470 hc         1 W2R       0.040700
     51 H13          9.2050    -3.2500    -1.2180 hc         1 W2R       0.043950
     52 H14          7.6290    -3.9070    -0.8250 hc         1 W2R       0.043950
     53 H15          7.1440    -4.6040     1.6590 hc         1 W2R       0.043950
     54 H16          8.4130    -4.4020     2.8510 hc         1 W2R       0.043950
     55 H17          8.7650    -1.2480     0.1710 hc         1 W2R       0.044700
     56 H18          7.4920    -1.4440    -1.0270 hc         1 W2R       0.044700
     57 H19          6.7030    -2.5960     3.0280 hc         1 W2R       0.044700
     58 H20          8.2880    -1.9440     2.6320 hc         1 W2R       0.044700
     59 H21          6.0340    -2.5020     0.6650 h1         1 W2R       0.083700
     60 H22         -5.7680    -1.0180    -1.3540 h1         1 W2R       0.068700
     61 H23         -7.0930    -2.0240    -0.8350 h1         1 W2R       0.068700
     62 H24         -4.3610    -1.9580     0.5560 h1         1 W2R       0.038700
     63 H25         -5.7310    -2.9770     1.0090 h1         1 W2R       0.038700
     64 H26         -2.9810    -6.1240    -1.0110 h1         1 W2R       0.026200
     65 H27         -4.5180    -5.8160    -1.8150 h1         1 W2R       0.026200
     66 H28         -4.3640    -4.9360     0.4860 h1         1 W2R       0.034200
     67 H29         -3.0320    -3.8760     0.0170 h1         1 W2R       0.034200
     68 H30         -4.2820     0.1600    -0.9610 hn         1 W2R       0.440800
     69 H31          5.7380     1.6790     1.7390 hn         1 W2R       0.310500
     70 H32          6.9910    -0.0110     1.8970 hn         1 W2R       0.303500
     71 H33         -2.7000    -5.2930    -3.1680 ho         1 W2R       0.404000
     72 N33         -3.8450     0.6620    -0.2080 nu         1 W2R      -0.753300
     73 C26         -6.2070    -1.4990    -0.4780 c3         1 W2R       0.043300
@<TRIPOS>BOND
     1     1     2 ar  
     2     1     4 ar  
     3     1    39 1   
     4     2    13 ar  
     5     2    40 1   
     6     3     5 ar  
     7     3    14 ar  
     8     3    41 1   
     9     4    15 ar  
    10     4    42 1   
    11     5    16 ar  
    12     5    43 1   
    13     6     9 2   
    14     6    11 1   
    15     6    44 1   
    16     7    13 ar  
    17     7    15 ar  
    18     7    45 1   
    19     8    14 ar  
    20     8    17 ar  
    21     8    46 1   
    22     9    31 1   
    23     9    47 1   
    24    10    29 ar  
    25    10    30 ar  
    26    10    48 1   
    27    11    12 ar  
    28    11    29 ar  
    29    12    18 ar  
    30    12    31 1   
    31    13    32 1   
    32    14    72 1   
    33    15    36 1   
    34    16    17 ar  
    35    16    36 1   
    36    17    38 1   
    37    18    30 ar  
    38    18    72 1   
    39    19    32 1   
    40    19    33 1   
    41    19    34 2   
    42    20    21 1   
    43    20    22 1   
    44    20    49 1   
    45    20    50 1   
    46    21    23 1   
    47    21    51 1   
    48    21    52 1   
    49    22    24 1   
    50    22    53 1   
    51    22    54 1   
    52    23    25 1   
    53    23    55 1   
    54    23    56 1   
    55    24    25 1   
    56    24    57 1   
    57    24    58 1   
    58    25    33 1   
    59    25    59 1   
    60    26    37 1   
    61    26    62 1   
    62    26    63 1   
    63    26    73 1   
    64    27    28 1   
    65    27    35 1   
    66    27    64 1   
    67    27    65 1   
    68    28    37 1   
    69    28    66 1   
    70    28    67 1   
    71    31    73 1   
    72    32    69 1   
    73    33    70 1   
    74    35    71 1   
    75    60    73 1   
    76    61    73 1   
    77    68    72 1   
@<TRIPOS>SUBSTRUCTURE
     1 W2R         1 TEMP              0 ****  ****    0 ROOT
