@<TRIPOS>MOLECULE
W2S
   28    29     1     0     0
SMALL
No Charge or Current Charge


@<TRIPOS>ATOM
      1 C4          21.1000    45.8410     8.8780 ca         1 W2S      -0.127000
      2 C5          21.4390    47.1920     8.7100 ca         1 W2S      -0.090000
      3 C6          21.5600    48.0690     9.8200 ca         1 W2S      -0.028300
      4 C7          21.9120    49.5750     9.6490 c5         1 W2S      -0.036400
      5 C8          23.4510    49.8070     9.4250 c5         1 W2S      -0.213700
      6 C10         23.5720    49.6660     7.8970 c5         1 W2S       0.158600
      7 C9          24.4000    48.8260    10.1650 c          1 W2S       0.732000
      8 O           25.1240    49.2840    11.0360 o          1 W2S      -0.728500
      9 O2          22.4210    50.3930     7.4220 os         1 W2S      -0.498000
     10 C11         21.3040    50.1360     8.3140 c5         1 W2S       0.156600
     11 C1          21.3360    47.5290    11.1200 ca         1 W2S      -0.047300
     12 C           21.4540    48.3840    12.3810 c3         1 W2S      -0.053800
     13 C3          20.8740    45.3280    10.1600 ca         1 W2S      -0.126000
     14 C2          20.9940    46.1690    11.2730 ca         1 W2S      -0.125000
     15 H1          21.0120    45.1910     8.0110 ha         1 W2S       0.094000
     16 H2          21.6080    47.5450     7.6970 ha         1 W2S       0.121000
     17 H3          21.5480    50.1790    10.4850 hc         1 W2S       0.058700
     18 H4          23.6850    50.8270     9.7540 hc         1 W2S       0.036700
     19 H5          23.5160    48.6250     7.5550 h1         1 W2S       0.045700
     20 H6          24.4920    50.1160     7.4990 h1         1 W2S       0.045700
     21 H8          20.7860    51.0880     8.4880 h1         1 W2S       0.020700
     22 H9          20.5860    49.4610     7.8320 h1         1 W2S       0.020700
     23 H10         20.6410    49.1180    12.4370 hc         1 W2S       0.043700
     24 H11         21.4050    47.7750    13.2920 hc         1 W2S       0.043700
     25 H12         22.4060    48.9260    12.4100 hc         1 W2S       0.043700
     26 H13         20.6110    44.2810    10.2920 ha         1 W2S       0.090000
     27 H14         20.8190    45.7590    12.2650 ha         1 W2S       0.091000
     28 O1          24.5000    47.6630     9.8020 o          1 W2S      -0.728500
@<TRIPOS>BOND
     1     1     2 ar  
     2     1    13 ar  
     3     1    15 1   
     4     2     3 ar  
     5     2    16 1   
     6     3     4 1   
     7     3    11 ar  
     8     4     5 1   
     9     4    10 1   
    10     4    17 1   
    11     5     6 1   
    12     5     7 1   
    13     5    18 1   
    14     6     9 1   
    15     6    19 1   
    16     6    20 1   
    17     7     8 1   
    18     7    28 1   
    19     9    10 1   
    20    10    21 1   
    21    10    22 1   
    22    11    12 1   
    23    11    14 ar  
    24    12    23 1   
    25    12    24 1   
    26    12    25 1   
    27    13    14 ar  
    28    13    26 1   
    29    14    27 1   
@<TRIPOS>SUBSTRUCTURE
     1 W2S         1 TEMP              0 ****  ****    0 ROOT
