@<TRIPOS>MOLECULE
W2S
   28    29     1     0     0
SMALL
bcc


@<TRIPOS>ATOM
      1 C4          21.1470    45.8380     8.9320 ca         1 W2S      -0.145000
      2 C5          21.5100    47.1680     8.7730 ca         1 W2S      -0.108000
      3 C6          21.6050    48.0400     9.8590 ca         1 W2S      -0.028300
      4 C7          21.9990    49.4850     9.6600 c5         1 W2S      -0.036400
      5 C8          23.4860    49.7080     9.2960 c5         1 W2S      -0.213700
      6 C10         23.4790    49.5900     7.7770 c5         1 W2S       0.135400
      7 C9          24.5000    48.8210    10.0430 c          1 W2S       0.942600
      8 O           24.5520    48.9810    11.2800 o          1 W2S      -0.833800
      9 O2          22.1660    49.9250     7.3380 os         1 W2S      -0.451600
     10 C11         21.3340    50.1570     8.4600 c5         1 W2S       0.133400
     11 C1          21.3050    47.5470    11.1410 ca         1 W2S      -0.047300
     12 C           21.3510    48.4240    12.3620 c3         1 W2S      -0.053800
     13 C3          20.8620    45.3520    10.1980 ca         1 W2S      -0.144000
     14 C2          20.9410    46.2090    11.2850 ca         1 W2S      -0.143000
     15 H1          21.0830    45.1900     8.0660 ha         1 W2S       0.112000
     16 H2          21.7070    47.5300     7.7730 ha         1 W2S       0.139000
     17 H3          21.7540    50.0470    10.5600 hc         1 W2S       0.058700
     18 H4          23.7110    50.7460     9.5650 hc         1 W2S       0.036700
     19 H5          23.7220    48.5740     7.4550 h1         1 W2S       0.045700
     20 H6          24.2060    50.2650     7.3130 h1         1 W2S       0.045700
     21 H8          21.2410    51.2340     8.6520 h1         1 W2S       0.020700
     22 H9          20.3330    49.7710     8.2510 h1         1 W2S       0.020700
     23 H10         20.6100    49.2240    12.3150 hc         1 W2S       0.043700
     24 H11         21.1470    47.8450    13.2620 hc         1 W2S       0.043700
     25 H12         22.3280    48.8920    12.4720 hc         1 W2S       0.043700
     26 H13         20.5760    44.3170    10.3400 ha         1 W2S       0.108000
     27 H14         20.7100    45.8330    12.2750 ha         1 W2S       0.109000
     28 O1          25.1940    48.0410     9.3640 o          1 W2S      -0.833800
@<TRIPOS>BOND
     1     1     2 ar  
     2     1    13 ar  
     3     1    15 1   
     4     2     3 ar  
     5     2    16 1   
     6     3     4 1   
     7     3    11 ar  
     8     4     5 1   
     9     4    10 1   
    10     4    17 1   
    11     5     6 1   
    12     5     7 1   
    13     5    18 1   
    14     6     9 1   
    15     6    19 1   
    16     6    20 1   
    17     7     8 1   
    18     7    28 1   
    19     9    10 1   
    20    10    21 1   
    21    10    22 1   
    22    11    12 1   
    23    11    14 ar  
    24    12    23 1   
    25    12    24 1   
    26    12    25 1   
    27    13    14 ar  
    28    13    26 1   
    29    14    27 1   
@<TRIPOS>SUBSTRUCTURE
     1 W2S         1 TEMP              0 ****  ****    0 ROOT
