@<TRIPOS>MOLECULE
W2T
   59    62     1     0     0
SMALL
No Charge or Current Charge


@<TRIPOS>ATOM
      1 C10         40.2480    -3.6920     0.2390 ca         1 W2T      -0.177600
      2 C13         39.8650    -2.3580     0.5640 ca         1 W2T      -0.026000
      3 C15         40.4440    -2.7450     2.8590 ca         1 W2T       0.073600
      4 C17         40.7350    -4.5470     1.2690 ca         1 W2T      -0.042000
      5 C20         41.2770    -4.6690     3.8240 cc         1 W2T      -0.205400
      6 C22         41.7330    -5.9590     3.9480 cf         1 W2T       0.024800
      7 C26         43.0240    -8.3350     6.4810 cc         1 W2T      -0.063400
      8 C01         42.0790    -9.5090    -1.9940 ca         1 W2T      -0.151500
      9 C02         43.2020    -9.4680    -2.8330 ca         1 W2T       0.174000
     10 C03         43.4380    -8.3490    -3.6450 ca         1 W2T      -0.151500
     11 C04         42.5450    -7.2640    -3.6210 ca         1 W2T      -0.067500
     12 C05         41.4090    -7.2950    -2.7850 ca         1 W2T      -0.113300
     13 C06         41.1830    -8.4250    -1.9680 ca         1 W2T      -0.067500
     14 C07         40.4500    -6.1070    -2.7600 c3         1 W2T       0.168000
     15 C09         40.1230    -4.1600    -1.1950 c          1 W2T       0.618700
     16 C12         39.0070    -6.5120    -3.1270 c3         1 W2T      -0.106100
     17 C14         39.9620    -1.8730     1.8850 ca         1 W2T      -0.150000
     18 C16         40.8230    -4.0420     2.5760 ca         1 W2T      -0.100800
     19 C19         41.1380    -3.6320     4.8900 c          1 W2T       0.586200
     20 C23         42.2160    -6.7130     5.1150 cd         1 W2T      -0.214800
     21 C25         42.8070    -7.2410     7.2700 cd         1 W2T      -0.109300
     22 C27         42.6230    -8.0290     5.1470 cc         1 W2T      -0.056300
     23 C29         43.0400    -7.0510     8.7480 c3         1 W2T      -0.035800
     24 C31         44.3080   -10.5100     6.4460 c          1 W2T       0.597100
     25 C32         44.5500   -11.7240     7.3600 c3         1 W2T       0.018600
     26 N08         40.5030    -5.4580    -1.4530 ns         1 W2T      -0.510900
     27 N18         40.6440    -2.5480     4.2200 ns         1 W2T      -0.389100
     28 N24         42.3320    -6.2380     6.4260 na         1 W2T      -0.062000
     29 O11         39.7110    -3.4290    -2.0850 o          1 W2T      -0.595100
     30 O21         41.3890    -3.6790     6.0860 o          1 W2T      -0.582000
     31 O33         44.8040   -10.4140     5.3310 o          1 W2T      -0.547100
     32 Cl3         45.5170   -13.0740     6.5950 cl         1 W2T      -0.218000
     33 H131        39.4910    -1.6920    -0.2110 ha         1 W2T       0.138000
     34 H171        41.0370    -5.5690     1.0660 ha         1 W2T       0.112000
     35 H221        41.7440    -6.5110     3.0100 ha         1 W2T       0.184000
     36 H011        41.9040   -10.3780    -1.3660 ha         1 W2T       0.132000
     37 H031        44.3120    -8.3240    -4.2910 ha         1 W2T       0.132000
     38 H041        42.7370    -6.3990    -4.2530 ha         1 W2T       0.114500
     39 H061        40.3170    -8.4650    -1.3110 ha         1 W2T       0.114500
     40 H071        40.7880    -5.3780    -3.5090 h1         1 W2T       0.073700
     41 H123        38.3610    -5.6290    -3.1950 hc         1 W2T       0.045033
     42 H122        38.9900    -7.0180    -4.0990 hc         1 W2T       0.045033
     43 H121        38.5810    -7.1890    -2.3780 hc         1 W2T       0.045033
     44 H141        39.6700    -0.8560     2.1340 ha         1 W2T       0.126000
     45 H292        42.3700    -7.6900     9.3350 hc         1 W2T       0.054367
     46 H293        44.0710    -7.3060     9.0190 hc         1 W2T       0.054367
     47 H291        42.8630    -6.0130     9.0530 hc         1 W2T       0.054367
     48 H322        43.5790   -12.1360     7.6600 h1         1 W2T       0.076700
     49 H321        45.0870   -11.3890     8.2550 h1         1 W2T       0.076700
     50 H081        40.8520    -5.9970    -0.6730 hn         1 W2T       0.315500
     51 H181        40.4440    -1.6730     4.6880 hn         1 W2T       0.343500
     52 H241        42.0860    -5.2900     6.7130 hn         1 W2T       0.401000
     53 N30         43.5150    -9.5260     7.0200 ns         1 W2T      -0.404100
     54 C28         42.5800    -9.0130     4.0010 c3         1 W2T      -0.027800
     55 F34         44.0620   -10.5100    -2.8560 f          1 W2T      -0.180000
     56 H282        43.5170    -8.9970     3.4330 hc         1 W2T       0.045700
     57 H283        42.3990   -10.0340     4.3560 hc         1 W2T       0.045700
     58 H281        41.7640    -8.7800     3.3080 hc         1 W2T       0.045700
     59 H301        43.3500    -9.6770     8.0080 hn         1 W2T       0.318500
@<TRIPOS>BOND
     1     1     2 ar  
     2     1     4 ar  
     3     1    15 1   
     4     2    17 ar  
     5     2    33 1   
     6     3    17 ar  
     7     3    18 ar  
     8     3    27 1   
     9     4    18 ar  
    10     4    34 1   
    11     5     6 2   
    12     5    18 1   
    13     5    19 1   
    14     6    20 1   
    15     6    35 1   
    16     7    21 2   
    17     7    22 1   
    18     7    53 1   
    19     8     9 ar  
    20     8    13 ar  
    21     8    36 1   
    22     9    10 ar  
    23     9    55 1   
    24    10    11 ar  
    25    10    37 1   
    26    11    12 ar  
    27    11    38 1   
    28    12    13 ar  
    29    12    14 1   
    30    13    39 1   
    31    14    16 1   
    32    14    26 1   
    33    14    40 1   
    34    15    26 1   
    35    15    29 2   
    36    16    41 1   
    37    16    42 1   
    38    16    43 1   
    39    17    44 1   
    40    19    27 1   
    41    19    30 2   
    42    20    22 2   
    43    20    28 1   
    44    21    23 1   
    45    21    28 1   
    46    22    54 1   
    47    23    45 1   
    48    23    46 1   
    49    23    47 1   
    50    24    25 1   
    51    24    31 2   
    52    24    53 1   
    53    25    32 1   
    54    25    48 1   
    55    25    49 1   
    56    26    50 1   
    57    27    51 1   
    58    28    52 1   
    59    53    59 1   
    60    54    56 1   
    61    54    57 1   
    62    54    58 1   
@<TRIPOS>SUBSTRUCTURE
     1 W2T         1 TEMP              0 ****  ****    0 ROOT
