@<TRIPOS>MOLECULE
W2T
   59    62     1     0     0
SMALL
abcg2


@<TRIPOS>ATOM
      1 C10         40.7310    -4.0150     0.1820 ca         1 W2T      -0.177600
      2 C13         40.7000    -2.6270     0.3400 ca         1 W2T      -0.026000
      3 C15         41.1880    -2.8640     2.6490 ca         1 W2T       0.073600
      4 C17         41.0150    -4.8330     1.2770 ca         1 W2T      -0.042000
      5 C20         41.5790    -4.8080     3.8170 cc         1 W2T      -0.205400
      6 C22         41.7460    -6.1350     4.0930 cf         1 W2T       0.024800
      7 C26         42.5900    -8.4200     6.7600 cc         1 W2T      -0.063400
      8 C01         43.2710    -8.1420    -2.6800 ca         1 W2T      -0.151500
      9 C02         43.5640    -7.9530    -4.0170 ca         1 W2T       0.174000
     10 C03         42.6910    -7.3120    -4.8740 ca         1 W2T      -0.151500
     11 C04         41.4870    -6.8430    -4.3620 ca         1 W2T      -0.067500
     12 C05         41.1580    -7.0130    -3.0230 ca         1 W2T      -0.113300
     13 C06         42.0620    -7.6690    -2.1910 ca         1 W2T      -0.067500
     14 C07         39.8240    -6.5340    -2.4880 c3         1 W2T       0.168000
     15 C09         40.5110    -4.5740    -1.1830 c          1 W2T       0.618700
     16 C12         38.8700    -7.7020    -2.2710 c3         1 W2T      -0.106100
     17 C14         40.9160    -2.0340     1.5770 ca         1 W2T      -0.150000
     18 C16         41.2470    -4.2580     2.5130 ca         1 W2T      -0.100800
     19 C19         41.6980    -3.6540     4.7240 c          1 W2T       0.586200
     20 C23         42.0750    -6.8250     5.2750 cd         1 W2T      -0.214800
     21 C25         42.6250    -7.1860     7.4090 cd         1 W2T      -0.109300
     22 C27         42.2430    -8.2100     5.4210 cc         1 W2T      -0.056300
     23 C29         42.9120    -6.8800     8.8310 c3         1 W2T      -0.035800
     24 C31         43.9240   -10.4130     7.0220 c          1 W2T       0.597100
     25 C32         43.9340   -11.7650     7.7190 c3         1 W2T       0.018600
     26 N08         39.9810    -5.8110    -1.2400 ns         1 W2T      -0.510900
     27 N18         41.4530    -2.5420     3.9630 ns         1 W2T      -0.389100
     28 N24         42.3070    -6.2530     6.5050 na         1 W2T      -0.062000
     29 O11         40.7980    -3.9390    -2.1900 o          1 W2T      -0.595100
     30 O21         41.9590    -3.6150     5.9240 o          1 W2T      -0.582000
     31 O33         44.7640   -10.0720     6.2180 o          1 W2T      -0.547100
     32 CL3         45.5180   -12.5530     7.5880 cl         1 W2T      -0.218000
     33 H131        40.4950    -1.9990    -0.5160 ha         1 W2T       0.138000
     34 H171        41.0870    -5.9080     1.1610 ha         1 W2T       0.112000
     35 H221        41.6050    -6.7990     3.2460 ha         1 W2T       0.184000
     36 H011        43.9730    -8.6490    -2.0310 ha         1 W2T       0.132000
     37 H031        42.9460    -7.1710    -5.9160 ha         1 W2T       0.132000
     38 H041        40.7970    -6.3320    -5.0230 ha         1 W2T       0.114500
     39 H061        41.8310    -7.8110    -1.1420 ha         1 W2T       0.114500
     40 H071        39.3800    -5.8600    -3.2260 h1         1 W2T       0.073700
     41 H123        37.8980    -7.3510    -1.9230 hc         1 W2T       0.045033
     42 H122        38.7210    -8.2410    -3.2050 hc         1 W2T       0.045033
     43 H121        39.2690    -8.4050    -1.5370 hc         1 W2T       0.045033
     44 H141        40.8780    -0.9590     1.6910 ha         1 W2T       0.126000
     45 H292        41.9910    -6.8040     9.4130 hc         1 W2T       0.054367
     46 H293        43.5170    -7.6680     9.2760 hc         1 W2T       0.054367
     47 H291        43.4460    -5.9360     8.9350 hc         1 W2T       0.054367
     48 H322        43.1920   -12.4150     7.2540 h1         1 W2T       0.076700
     49 H321        43.6830   -11.6690     8.7740 h1         1 W2T       0.076700
     50 H081        39.6500    -6.2510    -0.3970 hn         1 W2T       0.315500
     51 H181        41.4760    -1.6040     4.3330 hn         1 W2T       0.343500
     52 H241        42.2430    -5.2440     6.6490 hn         1 W2T       0.401000
     53 N30         42.8570    -9.6560     7.3670 ns         1 W2T      -0.404100
     54 C28         42.1130    -9.2600     4.3770 c3         1 W2T      -0.027800
     55 F34         44.7380    -8.4020    -4.4940 f          1 W2T      -0.180000
     56 H282        43.0700    -9.4530     3.8890 hc         1 W2T       0.045700
     57 H283        41.7820   -10.2000     4.8170 hc         1 W2T       0.045700
     58 H281        41.3980    -8.9880     3.6010 hc         1 W2T       0.045700
     59 H301        42.2220    -9.9960     8.0740 hn         1 W2T       0.318500
@<TRIPOS>BOND
     1     1     2 ar  
     2     1     4 ar  
     3     1    15 1   
     4     2    17 ar  
     5     2    33 1   
     6     3    17 ar  
     7     3    18 ar  
     8     3    27 1   
     9     4    18 ar  
    10     4    34 1   
    11     5     6 2   
    12     5    18 1   
    13     5    19 1   
    14     6    20 1   
    15     6    35 1   
    16     7    21 2   
    17     7    22 1   
    18     7    53 1   
    19     8     9 ar  
    20     8    13 ar  
    21     8    36 1   
    22     9    10 ar  
    23     9    55 1   
    24    10    11 ar  
    25    10    37 1   
    26    11    12 ar  
    27    11    38 1   
    28    12    13 ar  
    29    12    14 1   
    30    13    39 1   
    31    14    16 1   
    32    14    26 1   
    33    14    40 1   
    34    15    26 1   
    35    15    29 2   
    36    16    41 1   
    37    16    42 1   
    38    16    43 1   
    39    17    44 1   
    40    19    27 1   
    41    19    30 2   
    42    20    22 2   
    43    20    28 1   
    44    21    23 1   
    45    21    28 1   
    46    22    54 1   
    47    23    45 1   
    48    23    46 1   
    49    23    47 1   
    50    24    25 1   
    51    24    31 2   
    52    24    53 1   
    53    25    32 1   
    54    25    48 1   
    55    25    49 1   
    56    26    50 1   
    57    27    51 1   
    58    28    52 1   
    59    53    59 1   
    60    54    56 1   
    61    54    57 1   
    62    54    58 1   
@<TRIPOS>SUBSTRUCTURE
     1 W2T         1 TEMP              0 ****  ****    0 ROOT
