@<TRIPOS>MOLECULE
W2U
   25    25     1     0     0
SMALL
No Charge or Current Charge


@<TRIPOS>ATOM
      1 N1          31.6630    15.3430    43.1090 n8         1 W2U      -0.715200
      2 C7          28.5060    14.7300    38.0480 ca         1 W2U      -0.105000
      3 C8          28.4340    15.2590    39.3500 ca         1 W2U      -0.123500
      4 O1          27.4340    16.9180    40.8820 os         1 W2U      -0.349100
      5 C1          28.0290    16.4080    42.1090 c3         1 W2U       0.092300
      6 C5          26.8590    16.3500    37.2910 ca         1 W2U      -0.105000
      7 C6          27.7190    15.2740    37.0200 ca         1 W2U      -0.115000
      8 C4          26.7860    16.8790    38.5920 ca         1 W2U      -0.123500
      9 C3          27.5650    16.3390    39.6300 ca         1 W2U       0.084100
     10 C2          29.5930    16.4360    42.1170 c          1 W2U       0.591100
     11 O           30.2480    17.1900    41.4030 o          1 W2U      -0.552100
     12 N           30.2180    15.5050    42.9600 ns         1 W2U      -0.412300
     13 C           27.3560    15.0540    42.4760 c3         1 W2U      -0.125100
     14 H1          31.9640    15.5010    44.0820 hn         1 W2U       0.397500
     15 H2          31.9660    14.3880    42.8600 hn         1 W2U       0.397500
     16 H4          29.0630    14.8190    40.1160 ha         1 W2U       0.130000
     17 H5          27.7590    17.0970    42.9200 h1         1 W2U       0.102700
     18 H6          26.2500    16.7750    36.4960 ha         1 W2U       0.115500
     19 H7          27.7770    14.8640    36.0140 ha         1 W2U       0.115000
     20 H8          26.1190    17.7130    38.7980 ha         1 W2U       0.130000
     21 H9          29.5970    14.9050    43.5060 hn         1 W2U       0.303500
     22 H10         27.5440    14.8000    43.5260 hc         1 W2U       0.050033
     23 H11         26.2690    15.1210    42.3440 hc         1 W2U       0.050033
     24 H12         27.7250    14.2300    41.8560 hc         1 W2U       0.050033
     25 H3          29.1760    13.8990    37.8360 ha         1 W2U       0.115500
@<TRIPOS>BOND
     1     1    12 1   
     2     1    14 1   
     3     1    15 1   
     4     2     3 ar  
     5     2     7 ar  
     6     2    25 1   
     7     3     9 ar  
     8     3    16 1   
     9     4     5 1   
    10     4     9 1   
    11     5    10 1   
    12     5    13 1   
    13     5    17 1   
    14     6     7 ar  
    15     6     8 ar  
    16     6    18 1   
    17     7    19 1   
    18     8     9 ar  
    19     8    20 1   
    20    10    11 2   
    21    10    12 1   
    22    12    21 1   
    23    13    22 1   
    24    13    23 1   
    25    13    24 1   
@<TRIPOS>SUBSTRUCTURE
     1 W2U         1 TEMP              0 ****  ****    0 ROOT
