@<TRIPOS>MOLECULE
W2U
   25    25     1     0     0
SMALL
abcg2


@<TRIPOS>ATOM
      1 N1          31.0130    14.5120    42.5400 n8         1 W2U      -0.715200
      2 C7          29.1820    15.1110    38.1180 ca         1 W2U      -0.105000
      3 C8          29.2170    16.0100    39.1780 ca         1 W2U      -0.123500
      4 O1          28.0370    17.4560    40.7050 os         1 W2U      -0.349100
      5 C1          28.1800    16.9600    42.0570 c3         1 W2U       0.092300
      6 C5          26.7800    15.2570    38.0590 ca         1 W2U      -0.105000
      7 C6          27.9660    14.7300    37.5570 ca         1 W2U      -0.115000
      8 C4          26.8060    16.1520    39.1230 ca         1 W2U      -0.123500
      9 C3          28.0250    16.5220    39.6850 ca         1 W2U       0.084100
     10 C2          29.6210    16.4480    42.2510 c          1 W2U       0.591100
     11 O           30.5520    17.2460    42.2280 o          1 W2U      -0.552100
     12 N           29.7530    15.1200    42.4180 ns         1 W2U      -0.412300
     13 C           27.0490    16.0280    42.4510 c3         1 W2U      -0.125100
     14 H1          30.9950    13.9010    43.3510 hn         1 W2U       0.397500
     15 H2          31.1760    13.9340    41.7210 hn         1 W2U       0.397500
     16 H4          30.1600    16.3210    39.6060 ha         1 W2U       0.130000
     17 H5          28.1260    17.8650    42.6610 h1         1 W2U       0.102700
     18 H6          25.8310    14.9720    37.6230 ha         1 W2U       0.115500
     19 H7          27.9440    14.0320    36.7300 ha         1 W2U       0.115000
     20 H8          25.8920    16.5700    39.5240 ha         1 W2U       0.130000
     21 H9          28.9380    14.5280    42.3630 hn         1 W2U       0.303500
     22 H10         27.1540    15.7340    43.4960 hc         1 W2U       0.050033
     23 H11         26.0980    16.5490    42.3360 hc         1 W2U       0.050033
     24 H12         27.0120    15.1280    41.8350 hc         1 W2U       0.050033
     25 H3          30.1100    14.7130    37.7250 ha         1 W2U       0.115500
@<TRIPOS>BOND
     1     1    12 1   
     2     1    14 1   
     3     1    15 1   
     4     2     3 ar  
     5     2     7 ar  
     6     2    25 1   
     7     3     9 ar  
     8     3    16 1   
     9     4     5 1   
    10     4     9 1   
    11     5    10 1   
    12     5    13 1   
    13     5    17 1   
    14     6     7 ar  
    15     6     8 ar  
    16     6    18 1   
    17     7    19 1   
    18     8     9 ar  
    19     8    20 1   
    20    10    11 2   
    21    10    12 1   
    22    12    21 1   
    23    13    22 1   
    24    13    23 1   
    25    13    24 1   
@<TRIPOS>SUBSTRUCTURE
     1 W2U         1 TEMP              0 ****  ****    0 ROOT
