@<TRIPOS>MOLECULE
W2V
   32    33     1     0     0
SMALL
bcc


@<TRIPOS>ATOM
      1 C4          -2.4990    13.0980    -3.0730 ca         1 W2V      -0.160000
      2 C5          -3.6810    13.0110    -2.3610 ca         1 W2V      -0.104000
      3 C6          -3.9200    13.8210    -1.2550 ca         1 W2V      -0.236000
      4 C7          -0.2500    14.1130    -3.5240 c6         1 W2V       0.015600
      5 C8           0.7200    15.2180    -3.1140 c6         1 W2V      -0.102400
      6 C10          1.6580    13.0270    -4.6700 c6         1 W2V       0.150400
      7 C12          1.0340    12.1220    -2.3940 c          1 W2V       0.942600
      8 O2           1.6980    11.0790    -2.5680 o          1 W2V      -0.832300
      9 C11          0.5110    12.7870    -3.6940 c6         1 W2V      -0.224700
     10 O1           2.5440    14.0200    -4.2000 os         1 W2V      -0.398600
     11 C9           1.8950    15.2660    -4.0790 c6         1 W2V       0.141400
     12 C3          -1.5050    14.0050    -2.6890 ca         1 W2V       0.031700
     13 C2          -1.7460    14.8140    -1.5900 ca         1 W2V      -0.137000
     14 C1          -2.9410    14.7310    -0.8720 ca         1 W2V       0.126100
     15 O           -3.0520    15.5710     0.1790 os         1 W2V      -0.324900
     16 C           -4.2400    15.5430     0.9410 c3         1 W2V       0.133700
     17 H1          -2.3500    12.4630    -3.9380 ha         1 W2V       0.127000
     18 H2          -4.4430    12.3050    -2.6690 ha         1 W2V       0.109000
     19 H3          -4.8560    13.7300    -0.7200 ha         1 W2V       0.114000
     20 H4          -0.6050    14.3760    -4.5320 hc         1 W2V       0.008700
     21 H5           1.0800    15.0530    -2.0980 hc         1 W2V       0.052200
     22 H6           0.2260    16.1940    -3.1300 hc         1 W2V       0.052200
     23 H7           1.2530    13.3200    -5.6520 h1         1 W2V       0.028700
     24 H8           2.2360    12.1140    -4.8110 h1         1 W2V       0.028700
     25 H10         -0.1510    12.0580    -4.1770 hc         1 W2V       0.036700
     26 H11          2.6430    15.9850    -3.7400 h1         1 W2V       0.014700
     27 H12          1.5390    15.6020    -5.0650 h1         1 W2V       0.014700
     28 H13         -1.0010    15.5270    -1.2600 ha         1 W2V       0.144000
     29 H14         -4.1250    16.2900     1.7220 h1         1 W2V       0.027367
     30 H15         -5.1200    15.7960     0.3420 h1         1 W2V       0.027367
     31 H16         -4.4050    14.5690     1.4090 h1         1 W2V       0.027367
     32 O3           0.7530    12.6430    -1.3000 o          1 W2V      -0.832300
@<TRIPOS>BOND
     1     1     2 ar  
     2     1    12 ar  
     3     1    17 1   
     4     2     3 ar  
     5     2    18 1   
     6     3    14 ar  
     7     3    19 1   
     8     4     5 1   
     9     4     9 1   
    10     4    12 1   
    11     4    20 1   
    12     5    11 1   
    13     5    21 1   
    14     5    22 1   
    15     6     9 1   
    16     6    10 1   
    17     6    23 1   
    18     6    24 1   
    19     7     8 1   
    20     7     9 1   
    21     7    32 1   
    22     9    25 1   
    23    10    11 1   
    24    11    26 1   
    25    11    27 1   
    26    12    13 ar  
    27    13    14 ar  
    28    13    28 1   
    29    14    15 1   
    30    15    16 1   
    31    16    29 1   
    32    16    30 1   
    33    16    31 1   
@<TRIPOS>SUBSTRUCTURE
     1 W2V         1 TEMP              0 ****  ****    0 ROOT
