@<TRIPOS>MOLECULE
W2V
   32    33     1     0     0
SMALL
No Charge or Current Charge


@<TRIPOS>ATOM
      1 C4          -2.7070    13.4370    -3.4380 ca         1 W2V      -0.142000
      2 C5          -3.9180    13.3830    -2.7290 ca         1 W2V      -0.086000
      3 C6          -4.0040    13.9290    -1.4390 ca         1 W2V      -0.218000
      4 C7          -0.2560    14.0780    -3.6790 c6         1 W2V       0.015600
      5 C8           0.5620    15.3940    -3.5330 c6         1 W2V      -0.102400
      6 C10          1.9440    12.9140    -4.2640 c6         1 W2V       0.173600
      7 C12          0.9080    12.4880    -1.9530 c          1 W2V       0.732000
      8 O2           0.5000    11.4130    -1.5370 o          1 W2V      -0.727000
      9 C11          0.6370    12.8210    -3.4380 c6         1 W2V      -0.224700
     10 O1           2.6190    14.1710    -4.0400 os         1 W2V      -0.445000
     11 C9           1.8390    15.3290    -4.4010 c6         1 W2V       0.164600
     12 C3          -1.5670    14.0390    -2.8690 ca         1 W2V       0.031700
     13 C2          -1.6610    14.5790    -1.5680 ca         1 W2V      -0.119000
     14 C1          -2.8690    14.5290    -0.8530 ca         1 W2V       0.126100
     15 O           -2.8920    15.0770     0.4140 os         1 W2V      -0.348100
     16 C           -4.0780    15.0760     1.2280 c3         1 W2V       0.156900
     17 H1          -2.6550    13.0070    -4.4350 ha         1 W2V       0.109000
     18 H2          -4.7910    12.9160    -3.1820 ha         1 W2V       0.091000
     19 H3          -4.9520    13.8750    -0.9130 ha         1 W2V       0.096000
     20 H4          -0.5480    14.0410    -4.7390 hc         1 W2V       0.008700
     21 H5           0.8530    15.5730    -2.4910 hc         1 W2V       0.052200
     22 H6          -0.0500    16.2530    -3.8400 hc         1 W2V       0.052200
     23 H7           1.7160    12.8240    -5.3360 h1         1 W2V       0.028700
     24 H8           2.6210    12.0900    -3.9950 h1         1 W2V       0.028700
     25 H10          0.0810    11.9620    -3.8390 hc         1 W2V       0.036700
     26 H11          2.4460    16.2310    -4.2440 h1         1 W2V       0.014700
     27 H12          1.5760    15.2710    -5.4680 h1         1 W2V       0.014700
     28 H13         -0.7970    15.0330    -1.0950 ha         1 W2V       0.126000
     29 H14         -3.8770    15.5590     2.1920 h1         1 W2V       0.027367
     30 H15         -4.8900    15.6250     0.7350 h1         1 W2V       0.027367
     31 H16         -4.4140    14.0500     1.4250 h1         1 W2V       0.027367
     32 O3           1.5250    13.2810    -1.2580 o          1 W2V      -0.727000
@<TRIPOS>BOND
     1     1     2 ar  
     2     1    12 ar  
     3     1    17 1   
     4     2     3 ar  
     5     2    18 1   
     6     3    14 ar  
     7     3    19 1   
     8     4     5 1   
     9     4     9 1   
    10     4    12 1   
    11     4    20 1   
    12     5    11 1   
    13     5    21 1   
    14     5    22 1   
    15     6     9 1   
    16     6    10 1   
    17     6    23 1   
    18     6    24 1   
    19     7     8 1   
    20     7     9 1   
    21     7    32 1   
    22     9    25 1   
    23    10    11 1   
    24    11    26 1   
    25    11    27 1   
    26    12    13 ar  
    27    13    14 ar  
    28    13    28 1   
    29    14    15 1   
    30    15    16 1   
    31    16    29 1   
    32    16    30 1   
    33    16    31 1   
@<TRIPOS>SUBSTRUCTURE
     1 W2V         1 TEMP              0 ****  ****    0 ROOT
