@<TRIPOS>MOLECULE
W2W
   66    71     1     0     0
SMALL
No Charge or Current Charge


@<TRIPOS>ATOM
      1 C1          13.9310    12.9510   -16.5020 c3         1 W2W       0.153100
      2 N1          14.3060    11.8240   -15.6210 n3         1 W2W      -0.718600
      3 C2          14.5120    10.5470   -16.3690 c6         1 W2W       0.164300
      4 C3          14.8790     9.3620   -15.4240 c6         1 W2W       0.186800
      5 N2          16.0770     9.6610   -14.5840 n3         1 W2W      -0.706500
      6 S1          16.6400     8.3570   -13.6420 sy         1 W2W       1.151600
      7 C4          15.2960     8.0950   -12.4630 ca         1 W2W      -0.294500
      8 C5          14.2350     7.2170   -12.7760 ca         1 W2W      -0.057000
      9 C6          13.1880     7.0190   -11.8610 ca         1 W2W       0.169000
     10 F1          12.2040     6.1420   -12.1800 f          1 W2W      -0.159000
     11 C7          13.1850     7.7000   -10.6150 ca         1 W2W       0.306000
     12 N3          12.1670     7.5380    -9.6600 nu         1 W2W      -0.832000
     13 C8          10.8080     7.6340    -9.7390 cc         1 W2W       0.462600
     14 C9           9.9720     7.2590    -8.7130 cd         1 W2W      -0.376400
     15 C10          8.5090     7.4340    -8.8530 c          1 W2W       0.539000
     16 N4           8.1090     7.9780   -10.0840 n          1 W2W       0.014200
     17 C11          9.0480     8.3270   -11.0650 cd         1 W2W       0.119000
     18 C12          8.6440     8.8890   -12.3280 cd         1 W2W      -0.153000
     19 C13          7.3130     9.0940   -12.5930 cc         1 W2W      -0.026000
     20 C14          6.3340     8.7500   -11.6120 cc         1 W2W      -0.049000
     21 C15          4.9260     8.9510   -11.8520 cc         1 W2W      -0.164000
     22 C16          3.9130     8.6560   -10.9840 cd         1 W2W      -0.144000
     23 N5           2.7670     9.0360   -11.6840 na         1 W2W       0.160800
     24 N6           3.0060     9.5490   -12.9470 nd         1 W2W      -0.508800
     25 C17          4.3210     9.4830   -13.0120 cc         1 W2W       0.251900
     26 C18          1.4330     8.8780   -11.0940 cx         1 W2W       0.012300
     27 C19          1.0010     9.4140    -9.7470 cx         1 W2W      -0.122900
     28 C20          0.3790     9.9600   -11.0080 cx         1 W2W      -0.122900
     29 C21          6.7630     8.2150   -10.4150 cd         1 W2W      -0.071000
     30 N7          10.3570     8.1760   -10.9170 nc         1 W2W      -0.420600
     31 O1           7.7130     7.1310    -7.9690 o          1 W2W      -0.554000
     32 C22         10.4380     6.6610    -7.3920 c3         1 W2W      -0.014900
     33 C23         14.2580     8.5530   -10.3030 ca         1 W2W      -0.143000
     34 C24         15.3070     8.7550   -11.2180 ca         1 W2W      -0.014000
     35 O2          16.7290     7.2070   -14.5490 o          1 W2W      -0.533000
     36 O3          17.8300     8.8480   -12.9380 o          1 W2W      -0.533000
     37 C25         15.8680    10.9340   -13.8340 c6         1 W2W       0.186800
     38 C26         15.5030    12.1210   -14.7780 c6         1 W2W       0.164300
     39 H1          13.7380    13.8560   -15.9110 h1         1 W2W       0.033700
     40 H2          14.7320    13.1720   -17.2200 h1         1 W2W       0.033700
     41 H3          13.0190    12.7140   -17.0660 h1         1 W2W       0.033700
     42 H5          13.6030    10.2820   -16.9290 h1         1 W2W       0.044700
     43 H6          15.3200    10.6670   -17.1070 h1         1 W2W       0.044700
     44 H7          14.0080     9.1480   -14.7890 h1         1 W2W       0.061950
     45 H8          15.0500     8.4730   -16.0480 h1         1 W2W       0.061950
     46 H9          14.2170     6.6810   -13.7230 ha         1 W2W       0.149000
     47 H10         12.4860     7.5540    -8.6950 hn         1 W2W       0.511000
     48 H12          9.3880     9.1520   -13.0730 ha         1 W2W       0.151000
     49 H13          7.0080     9.5170   -13.5440 ha         1 W2W       0.131000
     50 H14          3.8940     8.2360    -9.9860 h4         1 W2W       0.162000
     51 H15          4.8080     9.8290   -13.9140 h4         1 W2W       0.039100
     52 H16          1.0990     7.8770   -11.3640 h1         1 W2W       0.103700
     53 H17          0.3960     8.7660    -9.1170 hc         1 W2W       0.086700
     54 H18          1.6960    10.0540    -9.2080 hc         1 W2W       0.086700
     55 H19          0.6580    10.9640   -11.3180 hc         1 W2W       0.086700
     56 H20         -0.6480     9.6810   -11.2330 hc         1 W2W       0.086700
     57 H21          6.0880     7.9270    -9.6190 h4         1 W2W       0.171000
     58 H22          9.7740     5.8550    -7.0530 hc         1 W2W       0.040033
     59 H23         11.4390     6.2210    -7.4610 hc         1 W2W       0.040033
     60 H24         10.4630     7.4230    -6.6040 hc         1 W2W       0.040033
     61 H25         14.2760     9.0740    -9.3510 ha         1 W2W       0.123000
     62 H26         16.1220     9.4270   -10.9530 ha         1 W2W       0.143000
     63 H27         16.7740    11.2110   -13.2750 h1         1 W2W       0.061950
     64 H28         15.0580    10.8200   -13.0990 h1         1 W2W       0.061950
     65 H29         16.3730    12.3370   -15.4170 h1         1 W2W       0.044700
     66 H30         15.3250    13.0160   -14.1650 h1         1 W2W       0.044700
@<TRIPOS>BOND
     1     1     2 1   
     2     1    39 1   
     3     1    40 1   
     4     1    41 1   
     5     2     3 1   
     6     2    38 1   
     7     3     4 1   
     8     3    42 1   
     9     3    43 1   
    10     4     5 1   
    11     4    44 1   
    12     4    45 1   
    13     5     6 1   
    14     5    37 1   
    15     6     7 1   
    16     6    35 2   
    17     6    36 2   
    18     7     8 ar  
    19     7    34 ar  
    20     8     9 ar  
    21     8    46 1   
    22     9    10 1   
    23     9    11 ar  
    24    11    12 1   
    25    11    33 ar  
    26    12    13 1   
    27    12    47 1   
    28    13    14 2   
    29    13    30 1   
    30    14    15 1   
    31    14    32 1   
    32    15    16 1   
    33    15    31 2   
    34    16    17 1   
    35    16    29 1   
    36    17    18 1   
    37    17    30 2   
    38    18    19 2   
    39    18    48 1   
    40    19    20 1   
    41    19    49 1   
    42    20    21 1   
    43    20    29 2   
    44    21    22 2   
    45    21    25 1   
    46    22    23 1   
    47    22    50 1   
    48    23    24 1   
    49    23    26 1   
    50    24    25 2   
    51    25    51 1   
    52    26    27 1   
    53    26    28 1   
    54    26    52 1   
    55    27    28 1   
    56    27    53 1   
    57    27    54 1   
    58    28    55 1   
    59    28    56 1   
    60    29    57 1   
    61    32    58 1   
    62    32    59 1   
    63    32    60 1   
    64    33    34 ar  
    65    33    61 1   
    66    34    62 1   
    67    37    38 1   
    68    37    63 1   
    69    37    64 1   
    70    38    65 1   
    71    38    66 1   
@<TRIPOS>SUBSTRUCTURE
     1 W2W         1 TEMP              0 ****  ****    0 ROOT
