@<TRIPOS>MOLECULE
W2W
   66    71     1     0     0
SMALL
abcg2


@<TRIPOS>ATOM
      1 C1          13.5370    12.5600   -16.7500 c3         1 W2W       0.153100
      2 N1          13.9350    11.5680   -15.7770 n3         1 W2W      -0.718600
      3 C2          14.3320    10.3270   -16.4060 c6         1 W2W       0.164300
      4 C3          14.6410     9.2700   -15.3630 c6         1 W2W       0.186800
      5 N2          15.6910     9.7660   -14.4710 n3         1 W2W      -0.706500
      6 S1          16.4240     8.6540   -13.4870 sy         1 W2W       1.151600
      7 C4          15.2200     8.2240   -12.2600 ca         1 W2W      -0.294500
      8 C5          14.2320     7.2970   -12.5790 ca         1 W2W      -0.057000
      9 C6          13.2670     7.0240   -11.6380 ca         1 W2W       0.169000
     10 F1          12.3400     6.1040   -11.9130 f          1 W2W      -0.159000
     11 C7          13.2420     7.6480   -10.3920 ca         1 W2W       0.306000
     12 N3          12.2630     7.3280    -9.4530 nu         1 W2W      -0.832000
     13 C8          10.9240     7.5320    -9.6610 cc         1 W2W       0.462600
     14 C9          10.0110     7.1330    -8.6910 cd         1 W2W      -0.376400
     15 C10          8.6410     7.3970    -8.8950 c          1 W2W       0.539000
     16 N4           8.3330     8.0520   -10.1430 n          1 W2W       0.014200
     17 C11          9.3230     8.3670   -11.0380 cd         1 W2W       0.119000
     18 C12          8.9260     8.9970   -12.2460 cd         1 W2W      -0.153000
     19 C13          7.6250     9.2820   -12.4940 cc         1 W2W      -0.026000
     20 C14          6.6200     8.9560   -11.5410 cc         1 W2W      -0.049000
     21 C15          5.2170     9.2640   -11.7920 cc         1 W2W      -0.164000
     22 C16          4.0960     8.7000   -11.2160 cd         1 W2W      -0.144000
     23 N5           3.0300     9.3170   -11.7510 na         1 W2W       0.160800
     24 N6           3.3720    10.2390   -12.6480 nd         1 W2W      -0.508800
     25 C17          4.6870    10.2210   -12.6840 cc         1 W2W       0.251900
     26 C18          1.6550     8.9960   -11.5300 cx         1 W2W       0.012300
     27 C19          1.1580     8.9080   -10.1240 cx         1 W2W      -0.122900
     28 C20          0.7500    10.0550   -10.9950 cx         1 W2W      -0.122900
     29 C21          7.0210     8.3520   -10.3900 cd         1 W2W      -0.071000
     30 N7          10.5910     8.1240   -10.8090 nc         1 W2W      -0.420600
     31 O1           7.7130     7.1250    -8.1450 o          1 W2W      -0.554000
     32 C22         10.4470     6.4260    -7.4450 c3         1 W2W      -0.014900
     33 C23         14.2560     8.5510   -10.0960 ca         1 W2W      -0.143000
     34 C24         15.2480     8.8420   -11.0190 ca         1 W2W      -0.014000
     35 O2          16.6890     7.4750   -14.2940 o          1 W2W      -0.533000
     36 O3          17.5210     9.3300   -12.8180 o          1 W2W      -0.533000
     37 C25         15.3280    11.0380   -13.8420 c6         1 W2W       0.186800
     38 C26         14.9960    12.0510   -14.9210 c6         1 W2W       0.164300
     39 H1          13.2000    13.4640   -16.2430 h1         1 W2W       0.033700
     40 H2          14.3490    12.8410   -17.4380 h1         1 W2W       0.033700
     41 H3          12.7070    12.1820   -17.3490 h1         1 W2W       0.033700
     42 H5          13.5120     9.9570   -17.0260 h1         1 W2W       0.044700
     43 H6          15.2060    10.4580   -17.0660 h1         1 W2W       0.044700
     44 H7          13.7270     9.0360   -14.8030 h1         1 W2W       0.061950
     45 H8          14.9790     8.3640   -15.8620 h1         1 W2W       0.061950
     46 H9          14.2190     6.7720   -13.5250 ha         1 W2W       0.149000
     47 H10         12.5750     7.2490    -8.4970 hn         1 W2W       0.511000
     48 H12          9.7050     9.2360   -12.9560 ha         1 W2W       0.151000
     49 H13          7.3500     9.7540   -13.4290 ha         1 W2W       0.131000
     50 H14          3.9880     7.9120   -10.4890 h4         1 W2W       0.162000
     51 H15          5.2230    10.9020   -13.3290 h4         1 W2W       0.039100
     52 H16          1.2480     8.3010   -12.2550 h1         1 W2W       0.103700
     53 H17          0.4350     8.1330    -9.9050 hc         1 W2W       0.086700
     54 H18          1.8590     9.1090    -9.3240 hc         1 W2W       0.086700
     55 H19          1.1820    11.0240   -10.7840 hc         1 W2W       0.086700
     56 H20         -0.2590    10.0840   -11.3840 hc         1 W2W       0.086700
     57 H21          6.3380     8.0810    -9.6010 h4         1 W2W       0.171000
     58 H22          9.5910     6.0670    -6.8800 hc         1 W2W       0.040033
     59 H23         11.0750     5.5630    -7.6760 hc         1 W2W       0.040033
     60 H24         11.0220     7.0750    -6.7790 hc         1 W2W       0.040033
     61 H25         14.2620     9.0370    -9.1300 ha         1 W2W       0.123000
     62 H26         16.0230     9.5520   -10.7670 ha         1 W2W       0.143000
     63 H27         16.1650    11.4120   -13.2550 h1         1 W2W       0.061950
     64 H28         14.4660    10.9120   -13.1760 h1         1 W2W       0.061950
     65 H29         15.9110    12.2880   -15.4910 h1         1 W2W       0.044700
     66 H30         14.6740    12.9730   -14.4320 h1         1 W2W       0.044700
@<TRIPOS>BOND
     1     1     2 1   
     2     1    39 1   
     3     1    40 1   
     4     1    41 1   
     5     2     3 1   
     6     2    38 1   
     7     3     4 1   
     8     3    42 1   
     9     3    43 1   
    10     4     5 1   
    11     4    44 1   
    12     4    45 1   
    13     5     6 1   
    14     5    37 1   
    15     6     7 1   
    16     6    35 2   
    17     6    36 2   
    18     7     8 ar  
    19     7    34 ar  
    20     8     9 ar  
    21     8    46 1   
    22     9    10 1   
    23     9    11 ar  
    24    11    12 1   
    25    11    33 ar  
    26    12    13 1   
    27    12    47 1   
    28    13    14 2   
    29    13    30 1   
    30    14    15 1   
    31    14    32 1   
    32    15    16 1   
    33    15    31 2   
    34    16    17 1   
    35    16    29 1   
    36    17    18 1   
    37    17    30 2   
    38    18    19 2   
    39    18    48 1   
    40    19    20 1   
    41    19    49 1   
    42    20    21 1   
    43    20    29 2   
    44    21    22 2   
    45    21    25 1   
    46    22    23 1   
    47    22    50 1   
    48    23    24 1   
    49    23    26 1   
    50    24    25 2   
    51    25    51 1   
    52    26    27 1   
    53    26    28 1   
    54    26    52 1   
    55    27    28 1   
    56    27    53 1   
    57    27    54 1   
    58    28    55 1   
    59    28    56 1   
    60    29    57 1   
    61    32    58 1   
    62    32    59 1   
    63    32    60 1   
    64    33    34 ar  
    65    33    61 1   
    66    34    62 1   
    67    37    38 1   
    68    37    63 1   
    69    37    64 1   
    70    38    65 1   
    71    38    66 1   
@<TRIPOS>SUBSTRUCTURE
     1 W2W         1 TEMP              0 ****  ****    0 ROOT
