@<TRIPOS>MOLECULE
W2X
   48    47     1     0     0
SMALL
No Charge or Current Charge


@<TRIPOS>ATOM
      1 O43         -3.3990    -0.4720    -4.0250 o          1 W2X      -0.712500
      2 C31         -2.4480     0.0060    -3.4210 c          1 W2X       0.715000
      3 O42         -2.5790     0.8000    -2.4970 o          1 W2X      -0.712500
      4 C30         -1.0080    -0.4630    -3.8360 c3         1 W2X       0.027300
      5 O29          0.0250    -0.0660    -2.8890 os         1 W2X      -0.427100
      6 C13          0.0580    -0.6700    -1.6550 c          1 W2X       0.616100
      7 O18         -0.6840    -1.5870    -1.3140 o          1 W2X      -0.497000
      8 C12          1.2050    -0.1040    -0.7790 c3         1 W2X       0.097900
      9 C16          2.5740    -0.5490    -1.2750 c2         1 W2X       0.041400
     10 S17          2.8240    -2.3190    -1.1950 sh         1 W2X      -0.336400
     11 C25          3.5290     0.2740    -1.7280 c2         1 W2X      -0.313000
     12 N11          1.0200    -0.4620     0.6470 ns         1 W2X      -0.504900
     13 C10          1.4820     0.2800     1.7050 c          1 W2X       0.606100
     14 O15          2.0810     1.3350     1.5500 o          1 W2X      -0.620100
     15 C7           1.2230    -0.3270     3.0890 c3         1 W2X      -0.154400
     16 C4           0.1070     0.4310     3.8460 c3         1 W2X      -0.069400
     17 C3          -0.1800    -0.1620     5.2480 c3         1 W2X      -0.103400
     18 C2          -1.3410     0.5240     6.0170 c3         1 W2X       0.022500
     19 N14         -0.9920     1.9620     6.3090 n8         1 W2X      -0.992200
     20 C1          -1.7970    -0.3580     7.2580 c          1 W2X       0.724000
     21 O20         -1.0310    -0.4760     8.2080 o          1 W2X      -0.738500
     22 O19         -2.9260    -0.8330     7.2500 o          1 W2X      -0.738500
     23 C32         -0.5940     0.0840    -5.2340 c3         1 W2X      -0.044700
     24 C37         -0.4920     1.6340    -5.2530 c3         1 W2X       0.160600
     25 C33          0.7000    -0.6020    -5.7460 c3         1 W2X      -0.081100
     26 O31         -0.3420     2.1170    -6.5970 oh         1 W2X      -0.685000
     27 H30         -1.0480    -1.5580    -3.9070 h1         1 W2X       0.051700
     28 H12          1.1320     0.9870    -0.8730 h1         1 W2X       0.101700
     29 HS           4.0870    -2.3210    -1.6830 hs         1 W2X       0.177800
     30 H251         4.4930    -0.1010    -2.0680 ha         1 W2X       0.167500
     31 H252         3.3780     1.3520    -1.7710 ha         1 W2X       0.167500
     32 H11          0.5400    -1.3280     0.8660 hn         1 W2X       0.343500
     33 H7C1         0.9210    -1.3770     2.9860 hc         1 W2X       0.055700
     34 H7C2         2.1460    -0.2640     3.6770 hc         1 W2X       0.055700
     35 H4C1         0.3960     1.4850     3.9410 hc         1 W2X       0.042200
     36 H4C2        -0.8140     0.4050     3.2480 hc         1 W2X       0.042200
     37 H3C1        -0.4300    -1.2240     5.1270 hc         1 W2X       0.040700
     38 H3C2         0.7340    -0.1280     5.8550 hc         1 W2X       0.040700
     39 H2          -2.2020     0.5450     5.3350 h1         1 W2X       0.044700
     40 H141        -0.2380     1.9790     7.0060 hn         1 W2X       0.375500
     41 H142        -0.5670     2.3780     5.4740 hn         1 W2X       0.375500
     42 H32         -1.3950    -0.1950    -5.9300 hc         1 W2X       0.077700
     43 H371        -1.3990     2.0650    -4.8070 h1         1 W2X       0.037200
     44 H372         0.3600     1.9500    -4.6350 h1         1 W2X       0.037200
     45 H331         1.5630    -0.3280    -5.1270 hc         1 W2X       0.022033
     46 H332         0.5940    -1.6930    -5.7210 hc         1 W2X       0.022033
     47 H333         0.9160    -0.3110    -6.7810 hc         1 W2X       0.022033
     48 H31         -0.2640     3.0950    -6.5430 ho         1 W2X       0.421000
@<TRIPOS>BOND
     1     1     2 1   
     2     2     3 1   
     3     2     4 1   
     4     4     5 1   
     5     4    23 1   
     6     4    27 1   
     7     5     6 1   
     8     6     7 2   
     9     6     8 1   
    10     8     9 1   
    11     8    12 1   
    12     8    28 1   
    13     9    10 1   
    14     9    11 2   
    15    10    29 1   
    16    11    30 1   
    17    11    31 1   
    18    12    13 1   
    19    12    32 1   
    20    13    14 2   
    21    13    15 1   
    22    15    16 1   
    23    15    33 1   
    24    15    34 1   
    25    16    17 1   
    26    16    35 1   
    27    16    36 1   
    28    17    18 1   
    29    17    37 1   
    30    17    38 1   
    31    18    19 1   
    32    18    20 1   
    33    18    39 1   
    34    19    40 1   
    35    19    41 1   
    36    20    21 1   
    37    20    22 1   
    38    23    24 1   
    39    23    25 1   
    40    23    42 1   
    41    24    26 1   
    42    24    43 1   
    43    24    44 1   
    44    25    45 1   
    45    25    46 1   
    46    25    47 1   
    47    26    48 1   
@<TRIPOS>SUBSTRUCTURE
     1 W2X         1 TEMP              0 ****  ****    0 ROOT
