@<TRIPOS>MOLECULE
W2X
   48    47     1     0     0
SMALL
abcg2


@<TRIPOS>ATOM
      1 O43         -2.9320    -0.9160    -5.0880 o          1 W2X      -0.712500
      2 C31         -2.2650    -0.3310    -4.2150 c          1 W2X       0.715000
      3 O42         -2.6540     0.5030    -3.3820 o          1 W2X      -0.712500
      4 C30         -0.7640    -0.7060    -4.2110 c3         1 W2X       0.027300
      5 O29         -0.0900    -0.1190    -3.0900 os         1 W2X      -0.427100
      6 C13         -0.3500    -0.5730    -1.8940 c          1 W2X       0.616100
      7 O18         -1.0470    -1.5220    -1.6330 o          1 W2X      -0.497000
      8 C12          0.3930     0.2420    -0.8370 c3         1 W2X       0.097900
      9 C16          1.8830     0.1630    -1.0950 c2         1 W2X       0.041400
     10 S17          2.5540    -1.3850    -0.5660 sh         1 W2X      -0.336400
     11 C25          2.5670     1.1370    -1.6800 c2         1 W2X      -0.313000
     12 N11          0.0330    -0.2590     0.4600 ns         1 W2X      -0.504900
     13 C10          0.3730     0.3830     1.5980 c          1 W2X       0.606100
     14 O15          0.9580     1.4530     1.5870 o          1 W2X      -0.620100
     15 C7           0.0070    -0.3520     2.8680 c3         1 W2X      -0.154400
     16 C4          -0.0800     0.5460     4.0930 c3         1 W2X      -0.069400
     17 C3          -0.3800    -0.2530     5.3560 c3         1 W2X      -0.103400
     18 C2          -0.4970     0.6070     6.6260 c3         1 W2X       0.022500
     19 N14          0.7170     1.3190     6.9960 n8         1 W2X      -0.992200
     20 C1          -0.9680    -0.3030     7.7810 c          1 W2X       0.724000
     21 O20         -0.1010    -0.6990     8.5860 o          1 W2X      -0.738500
     22 O19         -2.1780    -0.6050     7.7850 o          1 W2X      -0.738500
     23 C32         -0.0300    -0.2370    -5.4650 c3         1 W2X      -0.044700
     24 C37         -0.1010     1.2760    -5.6330 c3         1 W2X       0.160600
     25 C33          1.4110    -0.7430    -5.4890 c3         1 W2X      -0.081100
     26 O31          0.4500     1.6160    -6.8890 oh         1 W2X      -0.685000
     27 H30         -0.6750    -1.7950    -4.1510 h1         1 W2X       0.051700
     28 H12          0.0850     1.2870    -0.9440 h1         1 W2X       0.101700
     29 HS           3.7310    -1.2790    -1.1920 hs         1 W2X       0.177800
     30 H251         3.6240     1.0580    -1.8950 ha         1 W2X       0.167500
     31 H252         2.0670     2.0480    -1.9780 ha         1 W2X       0.167500
     32 H11         -0.4980    -1.1150     0.5060 hn         1 W2X       0.343500
     33 H7C1        -0.9280    -0.9000     2.7270 hc         1 W2X       0.055700
     34 H7C2         0.7770    -1.1160     3.0270 hc         1 W2X       0.055700
     35 H4C1         0.8610     1.0890     4.2010 hc         1 W2X       0.042200
     36 H4C2        -0.8600     1.2990     3.9470 hc         1 W2X       0.042200
     37 H3C1        -1.3170    -0.7990     5.2160 hc         1 W2X       0.040700
     38 H3C2         0.4010    -1.0070     5.5060 hc         1 W2X       0.040700
     39 H2          -1.2820     1.3510     6.4450 h1         1 W2X       0.044700
     40 H141         1.3970     0.6420     7.3180 hn         1 W2X       0.375500
     41 H142         1.1210     1.7760     6.1880 hn         1 W2X       0.375500
     42 H32         -0.5740    -0.6940    -6.2980 hc         1 W2X       0.077700
     43 H371        -1.1430     1.6140    -5.5630 h1         1 W2X       0.037200
     44 H372         0.4480     1.7630    -4.8160 h1         1 W2X       0.037200
     45 H331         2.0040    -0.2960    -4.6890 hc         1 W2X       0.022033
     46 H332         1.4460    -1.8270    -5.3630 hc         1 W2X       0.022033
     47 H333         1.8940    -0.5080    -6.4360 hc         1 W2X       0.022033
     48 H31          0.4300     2.5730    -6.9730 ho         1 W2X       0.421000
@<TRIPOS>BOND
     1     1     2 1   
     2     2     3 1   
     3     2     4 1   
     4     4     5 1   
     5     4    23 1   
     6     4    27 1   
     7     5     6 1   
     8     6     7 2   
     9     6     8 1   
    10     8     9 1   
    11     8    12 1   
    12     8    28 1   
    13     9    10 1   
    14     9    11 2   
    15    10    29 1   
    16    11    30 1   
    17    11    31 1   
    18    12    13 1   
    19    12    32 1   
    20    13    14 2   
    21    13    15 1   
    22    15    16 1   
    23    15    33 1   
    24    15    34 1   
    25    16    17 1   
    26    16    35 1   
    27    16    36 1   
    28    17    18 1   
    29    17    37 1   
    30    17    38 1   
    31    18    19 1   
    32    18    20 1   
    33    18    39 1   
    34    19    40 1   
    35    19    41 1   
    36    20    21 1   
    37    20    22 1   
    38    23    24 1   
    39    23    25 1   
    40    23    42 1   
    41    24    26 1   
    42    24    43 1   
    43    24    44 1   
    44    25    45 1   
    45    25    46 1   
    46    25    47 1   
    47    26    48 1   
@<TRIPOS>SUBSTRUCTURE
     1 W2X         1 TEMP              0 ****  ****    0 ROOT
