@<TRIPOS>MOLECULE
W2Y
   30    30     1     0     0
SMALL
No Charge or Current Charge


@<TRIPOS>ATOM
      1 N1          22.8590    35.3940   -25.0680 nt         1 W2Y      -0.607000
      2 C4          26.3300    38.1190   -24.4440 c6         1 W2Y      -0.076400
      3 C5          25.8250    39.3300   -25.2590 c6         1 W2Y       0.210800
      4 C7          22.8910    36.2590   -24.0290 c          1 W2Y       0.605100
      5 O2          22.1780    36.0580   -23.0610 o          1 W2Y      -0.603100
      6 C2          23.9130    37.4120   -24.0680 c6         1 W2Y      -0.148700
      7 C3          25.3350    36.9390   -24.5050 c6         1 W2Y      -0.072400
      8 N           24.4450    39.7060   -24.8580 n3         1 W2Y      -0.765500
      9 S           23.9350    41.3050   -25.2710 s6         1 W2Y       1.217100
     10 O           22.4780    41.2620   -25.4280 o          1 W2Y      -0.531000
     11 O1          24.5300    42.2060   -24.2800 o          1 W2Y      -0.531000
     12 C1          23.4540    38.5960   -24.9840 c6         1 W2Y       0.241500
     13 C           23.1730    38.2090   -26.4720 c3         1 W2Y      -0.121100
     14 H1          22.2210    34.6130   -25.0400 hn         1 W2Y       0.314500
     15 H2          23.4750    35.5260   -25.8560 hn         1 W2Y       0.314500
     16 H4          26.4740    38.4240   -23.3980 hc         1 W2Y       0.056200
     17 H5          25.8700    39.0940   -26.3320 h1         1 W2Y       0.049700
     18 H6          26.5180    40.1660   -25.0850 h1         1 W2Y       0.049700
     19 H7          24.2540    42.5930   -27.2180 h1         1 W2Y       0.099033
     20 H8          25.7230    41.6420   -26.7900 h1         1 W2Y       0.099033
     21 H9          24.3060    40.8230   -27.5600 h1         1 W2Y       0.099033
     22 H10         23.9660    37.8000   -23.0420 hc         1 W2Y       0.093700
     23 H11         25.3270    36.5160   -25.5180 hc         1 W2Y       0.042200
     24 H12         25.6810    36.1360   -23.8390 hc         1 W2Y       0.042200
     25 H13         22.4880    38.9280   -24.5710 h1         1 W2Y       0.111700
     26 H14         22.3430    37.4990   -26.5520 hc         1 W2Y       0.044367
     27 H15         22.8740    39.0810   -27.0620 hc         1 W2Y       0.044367
     28 H16         24.0450    37.7670   -26.9660 hc         1 W2Y       0.044367
     29 H3          27.3150    37.8040   -24.8150 hc         1 W2Y       0.056200
     30 C6          24.6330    41.6210   -26.8880 c3         1 W2Y      -0.377100
@<TRIPOS>BOND
     1     1     4 1   
     2     1    14 1   
     3     1    15 1   
     4     2     3 1   
     5     2     7 1   
     6     2    16 1   
     7     2    29 1   
     8     3     8 1   
     9     3    17 1   
    10     3    18 1   
    11     4     5 2   
    12     4     6 1   
    13     6     7 1   
    14     6    12 1   
    15     6    22 1   
    16     7    23 1   
    17     7    24 1   
    18     8     9 1   
    19     8    12 1   
    20     9    10 2   
    21     9    11 2   
    22     9    30 1   
    23    12    13 1   
    24    12    25 1   
    25    13    26 1   
    26    13    27 1   
    27    13    28 1   
    28    19    30 1   
    29    20    30 1   
    30    21    30 1   
@<TRIPOS>SUBSTRUCTURE
     1 W2Y         1 TEMP              0 ****  ****    0 ROOT
