@<TRIPOS>MOLECULE
W2Y
   30    30     1     0     0
SMALL
abcg2


@<TRIPOS>ATOM
      1 N1          23.1080    35.1520   -24.6190 nt         1 W2Y      -0.607000
      2 C4          26.2910    38.0930   -24.4440 c6         1 W2Y      -0.076400
      3 C5          25.8860    39.2670   -25.3190 c6         1 W2Y       0.210800
      4 C7          22.7760    36.4000   -24.2690 c          1 W2Y       0.605100
      5 O2          21.6330    36.7180   -23.9650 o          1 W2Y      -0.603100
      6 C2          23.8890    37.4390   -24.2560 c6         1 W2Y      -0.148700
      7 C3          25.2990    36.9440   -24.5660 c6         1 W2Y      -0.072400
      8 N           24.5100    39.6520   -25.0060 n3         1 W2Y      -0.765500
      9 S           24.1090    41.2420   -25.1000 s6         1 W2Y       1.217100
     10 O           22.7070    41.3640   -24.7270 o          1 W2Y      -0.531000
     11 O1          25.1010    41.9930   -24.3420 o          1 W2Y      -0.531000
     12 C1          23.4850    38.6140   -25.1680 c6         1 W2Y       0.241500
     13 C           23.2660    38.2100   -26.6230 c3         1 W2Y      -0.121100
     14 H1          22.4080    34.4280   -24.6280 hn         1 W2Y       0.314500
     15 H2          24.0430    34.8880   -24.8750 hn         1 W2Y       0.314500
     16 H4          26.3480    38.4250   -23.4040 hc         1 W2Y       0.056200
     17 H5          25.9860    38.9990   -26.3760 h1         1 W2Y       0.049700
     18 H6          26.5500    40.1090   -25.1360 h1         1 W2Y       0.049700
     19 H7          24.0620    42.8030   -26.8640 h1         1 W2Y       0.099033
     20 H8          25.2970    41.5530   -27.1380 h1         1 W2Y       0.099033
     21 H9          23.5770    41.1840   -27.4200 h1         1 W2Y       0.099033
     22 H10         23.8950    37.8340   -23.2330 hc         1 W2Y       0.093700
     23 H11         25.3550    36.5260   -25.5770 hc         1 W2Y       0.042200
     24 H12         25.5820    36.1470   -23.8750 hc         1 W2Y       0.042200
     25 H13         22.5510    39.0130   -24.7780 h1         1 W2Y       0.111700
     26 H14         22.5050    37.4340   -26.7010 hc         1 W2Y       0.044367
     27 H15         22.9050    39.0560   -27.2070 hc         1 W2Y       0.044367
     28 H16         24.1680    37.8350   -27.1050 hc         1 W2Y       0.044367
     29 H3          27.2900    37.7650   -24.7340 hc         1 W2Y       0.056200
     30 C6          24.2780    41.7380   -26.8030 c3         1 W2Y      -0.377100
@<TRIPOS>BOND
     1     1     4 1   
     2     1    14 1   
     3     1    15 1   
     4     2     3 1   
     5     2     7 1   
     6     2    16 1   
     7     2    29 1   
     8     3     8 1   
     9     3    17 1   
    10     3    18 1   
    11     4     5 2   
    12     4     6 1   
    13     6     7 1   
    14     6    12 1   
    15     6    22 1   
    16     7    23 1   
    17     7    24 1   
    18     8     9 1   
    19     8    12 1   
    20     9    10 2   
    21     9    11 2   
    22     9    30 1   
    23    12    13 1   
    24    12    25 1   
    25    13    26 1   
    26    13    27 1   
    27    13    28 1   
    28    19    30 1   
    29    20    30 1   
    30    21    30 1   
@<TRIPOS>SUBSTRUCTURE
     1 W2Y         1 TEMP              0 ****  ****    0 ROOT
