@<TRIPOS>MOLECULE
W30
   46    47     1     0     0
SMALL
abcg2


@<TRIPOS>ATOM
      1 C07          6.8420     1.3150     0.0150 c3         1 W30      -0.053800
      2 C06          3.2690     0.1290     0.3270 ca         1 W30       0.397300
      3 C05          4.3630     0.9740     0.2890 ca         1 W30      -0.214000
      4 C04          5.6320     0.4330     0.0510 ca         1 W30       0.001700
      5 C03          5.7320    -0.9300    -0.1350 ca         1 W30      -0.233000
      6 C02          4.5680    -1.7150    -0.0730 ca         1 W30       0.599900
      7 N02          4.6380    -3.0730    -0.2010 nv         1 W30      -1.055900
      8 N01          3.3680    -1.1900     0.1500 nb         1 W30      -0.754000
      9 C09          1.0040     0.4820    -0.7060 c3         1 W30      -0.025100
     10 C16         -2.9100     1.9160    -0.0300 ca         1 W30       0.255900
     11 C15         -2.6200     0.6190     0.4440 ca         1 W30       0.289000
     12 C14         -1.3220     0.1550     0.1830 ca         1 W30      -0.160000
     13 C13         -0.4000     0.9570    -0.4740 ca         1 W30      -0.084300
     14 C12         -0.8080     2.2230    -0.8750 ca         1 W30       0.276900
     15 N11         -2.0350     2.6800    -0.6590 nb         1 W30      -0.638000
     16 C18         -3.1830    -1.4810     1.5170 c3         1 W30       0.216100
     17 C19         -4.9310     0.2430     1.1640 c3         1 W30       0.228800
     18 C20         -5.6850    -0.0150    -0.1270 c3         1 W30       0.123600
     19 O21         -5.6760    -1.3920    -0.4000 os         1 W30      -0.454000
     20 C22         -6.3300    -1.7090    -1.6010 c3         1 W30       0.144900
     21 H021         5.4480    -3.4560    -0.6580 hn         1 W30       0.467500
     22 H022         3.7770    -3.5420    -0.4320 hn         1 W30       0.467500
     23 H03          6.6900    -1.3950    -0.3340 ha         1 W30       0.118000
     24 H071         7.1350     1.6050     1.0260 hc         1 W30       0.046700
     25 H072         7.6930     0.8160    -0.4460 hc         1 W30       0.046700
     26 H073         6.6430     2.2350    -0.5370 hc         1 W30       0.046700
     27 H05          4.2340     2.0400     0.4310 ha         1 W30       0.122000
     28 H081         1.4180     0.1380     1.3820 hc         1 W30       0.057700
     29 H082         1.9240     1.7200     0.8080 hc         1 W30       0.057700
     30 H091         1.4480     1.0300    -1.5410 hc         1 W30       0.056200
     31 H092         1.0020    -0.5740    -0.9860 hc         1 W30       0.056200
     32 H12         -0.1220     2.8830    -1.3970 h4         1 W30       0.016100
     33 H14         -1.0170    -0.8380     0.4890 ha         1 W30       0.121000
     34 H16         -3.8940     2.3490     0.1060 h4         1 W30       0.011100
     35 H181        -2.2850    -1.4910     2.1390 h1         1 W30       0.038033
     36 H182        -3.9910    -1.9040     2.1090 h1         1 W30       0.038033
     37 H183        -3.0130    -2.1440     0.6630 h1         1 W30       0.038033
     38 H191        -5.4060    -0.3100     1.9750 h1         1 W30       0.059200
     39 H192        -5.0380     1.2970     1.4270 h1         1 W30       0.059200
     40 H201        -6.7120     0.3620    -0.0140 h1         1 W30       0.031200
     41 H202        -5.2310     0.5470    -0.9560 h1         1 W30       0.031200
     42 H221        -7.3880    -1.4200    -1.5840 h1         1 W30       0.029367
     43 H222        -5.8630    -1.2200    -2.4650 h1         1 W30       0.029367
     44 H223        -6.2710    -2.7870    -1.7440 h1         1 W30       0.029367
     45 C08          1.8810     0.6620     0.5410 c3         1 W30      -0.124700
     46 N17         -3.5330    -0.1340     1.1310 nh         1 W30      -0.812400
@<TRIPOS>BOND
     1     1     4 1   
     2     1    24 1   
     3     1    25 1   
     4     1    26 1   
     5     2     3 ar  
     6     2     8 ar  
     7     2    45 1   
     8     3     4 ar  
     9     3    27 1   
    10     4     5 ar  
    11     5     6 ar  
    12     5    23 1   
    13     6     7 1   
    14     6     8 ar  
    15     7    21 1   
    16     7    22 1   
    17     9    13 1   
    18     9    30 1   
    19     9    31 1   
    20     9    45 1   
    21    10    11 ar  
    22    10    15 ar  
    23    10    34 1   
    24    11    12 ar  
    25    11    46 1   
    26    12    13 ar  
    27    12    33 1   
    28    13    14 ar  
    29    14    15 ar  
    30    14    32 1   
    31    16    35 1   
    32    16    36 1   
    33    16    37 1   
    34    16    46 1   
    35    17    18 1   
    36    17    38 1   
    37    17    39 1   
    38    17    46 1   
    39    18    19 1   
    40    18    40 1   
    41    18    41 1   
    42    19    20 1   
    43    20    42 1   
    44    20    43 1   
    45    20    44 1   
    46    28    45 1   
    47    29    45 1   
@<TRIPOS>SUBSTRUCTURE
     1 W30         1 TEMP              0 ****  ****    0 ROOT
