@<TRIPOS>MOLECULE
W30
   46    47     1     0     0
SMALL
No Charge or Current Charge


@<TRIPOS>ATOM
      1 C07          6.8210     1.5290    -0.5330 c3         1 W30      -0.053800
      2 C06          3.4480     0.0190     0.4910 ca         1 W30       0.397300
      3 C05          4.4140     0.9580     0.0800 ca         1 W30      -0.214000
      4 C04          5.7460     0.5500    -0.0920 ca         1 W30       0.001700
      5 C03          6.0450    -0.7960     0.1650 ca         1 W30      -0.233000
      6 C02          5.0100    -1.6400     0.5700 ca         1 W30       0.599900
      7 N02          5.1760    -2.9380     0.8330 nv         1 W30      -1.055900
      8 N01          3.7470    -1.2770     0.7320 nb         1 W30      -0.754000
      9 C09          1.2220     0.4810    -0.6610 c3         1 W30      -0.025100
     10 C16         -2.8090     1.7930    -0.1580 ca         1 W30       0.255900
     11 C15         -2.5210     0.4400     0.1970 ca         1 W30       0.289000
     12 C14         -1.1850     0.0140     0.0260 ca         1 W30      -0.160000
     13 C13         -0.2250     0.9180    -0.4740 ca         1 W30      -0.084300
     14 C12         -0.6260     2.2320    -0.7930 ca         1 W30       0.276900
     15 N11         -1.8940     2.6730    -0.6410 nb         1 W30      -0.638000
     16 C18         -3.2930    -1.9260     0.7410 c3         1 W30       0.216100
     17 C19         -4.8540     0.0230     1.1610 c3         1 W30       0.228800
     18 C20         -5.9420     0.1250     0.0550 c3         1 W30       0.123600
     19 O21         -6.2970    -1.1980    -0.4010 os         1 W30      -0.454000
     20 C22         -7.2870    -1.2240    -1.4410 c3         1 W30       0.144900
     21 H021         5.9830    -3.3960     0.4250 hn         1 W30       0.467500
     22 H022         4.3220    -3.4790     0.8860 hn         1 W30       0.467500
     23 H03          7.0560    -1.1760     0.0550 ha         1 W30       0.118000
     24 H071         7.2650     2.0370     0.3320 hc         1 W30       0.046700
     25 H072         7.6280     1.0200    -1.0740 hc         1 W30       0.046700
     26 H073         6.4110     2.2980    -1.1990 hc         1 W30       0.046700
     27 H05          4.1240     1.9890    -0.1040 ha         1 W30       0.122000
     28 H081         1.4870    -0.2580     1.3600 hc         1 W30       0.057700
     29 H082         1.9520     1.4190     1.1490 hc         1 W30       0.057700
     30 H091         1.7380     1.1610    -1.3500 hc         1 W30       0.056200
     31 H092         1.2540    -0.5100    -1.1310 hc         1 W30       0.056200
     32 H12          0.0920     2.9550    -1.1790 h4         1 W30       0.016100
     33 H14         -0.8820    -0.9960     0.2830 ha         1 W30       0.121000
     34 H16         -3.8160     2.1940    -0.0580 h4         1 W30       0.011100
     35 H181        -2.5710    -2.1870     1.5250 h1         1 W30       0.038033
     36 H182        -4.2280    -2.4640     0.9470 h1         1 W30       0.038033
     37 H183        -2.9130    -2.2810    -0.2270 h1         1 W30       0.038033
     38 H191        -5.2350    -0.6340     1.9540 h1         1 W30       0.059200
     39 H192        -4.7480     1.0100     1.6300 h1         1 W30       0.059200
     40 H201        -6.8230     0.6310     0.4720 h1         1 W30       0.031200
     41 H202        -5.5630     0.7340    -0.7760 h1         1 W30       0.031200
     42 H221        -8.2230    -0.7610    -1.1010 h1         1 W30       0.029367
     43 H222        -6.9340    -0.6850    -2.3300 h1         1 W30       0.029367
     44 H223        -7.5050    -2.2590    -1.7340 h1         1 W30       0.029367
     45 C08          1.9950     0.4310     0.6750 c3         1 W30      -0.124700
     46 N17         -3.5160    -0.4590     0.7050 nh         1 W30      -0.812400
@<TRIPOS>BOND
     1     1     4 1   
     2     1    24 1   
     3     1    25 1   
     4     1    26 1   
     5     2     3 ar  
     6     2     8 ar  
     7     2    45 1   
     8     3     4 ar  
     9     3    27 1   
    10     4     5 ar  
    11     5     6 ar  
    12     5    23 1   
    13     6     7 1   
    14     6     8 ar  
    15     7    21 1   
    16     7    22 1   
    17     9    13 1   
    18     9    30 1   
    19     9    31 1   
    20     9    45 1   
    21    10    11 ar  
    22    10    15 ar  
    23    10    34 1   
    24    11    12 ar  
    25    11    46 1   
    26    12    13 ar  
    27    12    33 1   
    28    13    14 ar  
    29    14    15 ar  
    30    14    32 1   
    31    16    35 1   
    32    16    36 1   
    33    16    37 1   
    34    16    46 1   
    35    17    18 1   
    36    17    38 1   
    37    17    39 1   
    38    17    46 1   
    39    18    19 1   
    40    18    40 1   
    41    18    41 1   
    42    19    20 1   
    43    20    42 1   
    44    20    43 1   
    45    20    44 1   
    46    28    45 1   
    47    29    45 1   
@<TRIPOS>SUBSTRUCTURE
     1 W30         1 TEMP              0 ****  ****    0 ROOT
