@<TRIPOS>MOLECULE
W31
   59    62     1     0     0
SMALL
bcc


@<TRIPOS>ATOM
      1 C14         -3.4540    -3.5880     0.1370 ca         1 W31      -0.107000
      2 C5           0.3890     3.8710    -0.5780 ca         1 W31       0.029900
      3 C6          -0.5360     2.8670    -0.8200 ca         1 W31      -0.098000
      4 C11         -3.6720    -1.1670     0.7410 c3         1 W31       0.202400
      5 C7          -1.9020     3.1170    -0.8150 ca         1 W31      -0.067300
      6 C8          -2.8580     1.9820    -1.0320 c3         1 W31      -0.092100
      7 C9          -2.7820     0.9380     0.0620 c          1 W31       0.639100
      8 C12         -4.6320    -0.8130     1.8650 c3         1 W31      -0.112100
      9 C13         -4.1210    -2.3800    -0.0290 ca         1 W31      -0.094300
     10 C3           2.1440     1.8200    -0.2450 ce         1 W31      -0.294600
     11 C2           1.7340     1.3030     1.0580 c          1 W31       0.603300
     12 O10         -3.5880    -0.0810    -0.2030 os         1 W31      -0.431900
     13 C15         -3.8800    -4.7310    -0.5270 ca         1 W31      -0.133000
     14 C16         -4.9790    -4.6720    -1.3730 ca         1 W31      -0.120000
     15 C17         -5.6510    -3.4670    -1.5450 ca         1 W31      -0.133000
     16 C18         -5.2280    -2.3290    -0.8740 ca         1 W31      -0.107000
     17 O19         -2.0800     1.0100     1.0370 o          1 W31      -0.520000
     18 C20         -2.3460     4.4150    -0.6010 ca         1 W31      -0.110000
     19 C21         -1.4370     5.4440    -0.3990 ca         1 W31      -0.112000
     20 C22         -0.0810     5.1680    -0.3820 ca         1 W31       0.047400
     21 CL23         1.0470     6.4530    -0.1110 cl         1 W31      -0.092400
     22 C24          2.4920     1.0040    -1.2790 c2         1 W31       0.228900
     23 O25          2.8000     1.4400    -2.4810 oh         1 W31      -0.477100
     24 C26          2.5210    -0.4820    -1.1720 c6         1 W31      -0.050200
     25 C27          2.5180    -0.9600     0.2800 c6         1 W31      -0.005400
     26 C28          1.5310    -0.1880     1.1570 c6         1 W31      -0.176400
     27 C29          2.3640    -2.4590     0.3960 ca         1 W31      -0.055300
     28 C30          1.2090    -3.1560     0.0210 ca         1 W31       0.037400
     29 CL31        -0.1630    -2.3320    -0.6610 cl         1 W31      -0.102400
     30 C32          1.0780    -4.5290     0.1470 ca         1 W31      -0.120500
     31 C33          2.1250    -5.2690     0.6650 ca         1 W31      -0.109000
     32 C34          3.2920    -4.6330     1.0460 ca         1 W31      -0.120500
     33 C35          3.3950    -3.2570     0.9080 ca         1 W31       0.037400
     34 CL36         4.9010    -2.5490     1.4080 cl         1 W31      -0.102400
     35 H1          -2.5910    -3.6380     0.7900 ha         1 W31       0.134500
     36 H2          -0.1880     1.8600    -1.0080 ha         1 W31       0.137000
     37 H3          -2.6790    -1.3570     1.1570 h1         1 W31       0.068700
     38 H4          -3.8880     2.3460    -1.0900 hc         1 W31       0.078700
     39 H5          -2.6630     1.4910    -1.9900 hc         1 W31       0.078700
     40 H6          -4.2910     0.0610     2.4200 hc         1 W31       0.050700
     41 H7          -5.6340    -0.6160     1.4820 hc         1 W31       0.050700
     42 H8          -4.6960    -1.6460     2.5640 hc         1 W31       0.050700
     43 H9          -3.3510    -5.6650    -0.3880 ha         1 W31       0.131000
     44 H10         -5.3100    -5.5580    -1.8980 ha         1 W31       0.131000
     45 H11         -6.5090    -3.4150    -2.2030 ha         1 W31       0.131000
     46 H12         -5.7650    -1.3990    -1.0140 ha         1 W31       0.134500
     47 H13         -3.4060     4.6350    -0.5890 ha         1 W31       0.135000
     48 H14         -1.7840     6.4560    -0.2400 ha         1 W31       0.148000
     49 H15          2.7210     2.4110    -2.5210 ho         1 W31       0.460000
     50 H16          1.6640    -0.8560    -1.7390 hc         1 W31       0.082200
     51 H17          3.4110    -0.8580    -1.6820 hc         1 W31       0.082200
     52 H18          3.5040    -0.7090     0.6690 hc         1 W31       0.076700
     53 H19          1.6330    -0.4920     2.1990 hc         1 W31       0.083200
     54 H20          0.4930    -0.3700     0.8700 hc         1 W31       0.083200
     55 H21          0.1630    -5.0160    -0.1620 ha         1 W31       0.153500
     56 H22          2.0320    -6.3410     0.7680 ha         1 W31       0.145000
     57 H23          4.1200    -5.2000     1.4470 ha         1 W31       0.153500
     58 S4           2.1330     3.5620    -0.4780 ss         1 W31      -0.162500
     59 O1           1.4920     2.0410     1.9920 o          1 W31      -0.499100
@<TRIPOS>BOND
     1     1     9 ar  
     2     1    13 ar  
     3     1    35 1   
     4     2     3 ar  
     5     2    20 ar  
     6     2    58 1   
     7     3     5 ar  
     8     3    36 1   
     9     4     8 1   
    10     4     9 1   
    11     4    12 1   
    12     4    37 1   
    13     5     6 1   
    14     5    18 ar  
    15     6     7 1   
    16     6    38 1   
    17     6    39 1   
    18     7    12 1   
    19     7    17 2   
    20     8    40 1   
    21     8    41 1   
    22     8    42 1   
    23     9    16 ar  
    24    10    11 1   
    25    10    22 2   
    26    10    58 1   
    27    11    26 1   
    28    11    59 2   
    29    13    14 ar  
    30    13    43 1   
    31    14    15 ar  
    32    14    44 1   
    33    15    16 ar  
    34    15    45 1   
    35    16    46 1   
    36    18    19 ar  
    37    18    47 1   
    38    19    20 ar  
    39    19    48 1   
    40    20    21 1   
    41    22    23 1   
    42    22    24 1   
    43    23    49 1   
    44    24    25 1   
    45    24    50 1   
    46    24    51 1   
    47    25    26 1   
    48    25    27 1   
    49    25    52 1   
    50    26    53 1   
    51    26    54 1   
    52    27    28 ar  
    53    27    33 ar  
    54    28    29 1   
    55    28    30 ar  
    56    30    31 ar  
    57    30    55 1   
    58    31    32 ar  
    59    31    56 1   
    60    32    33 ar  
    61    32    57 1   
    62    33    34 1   
@<TRIPOS>SUBSTRUCTURE
     1 W31         1 TEMP              0 ****  ****    0 ROOT
