@<TRIPOS>MOLECULE
W31
   59    62     1     0     0
SMALL
No Charge or Current Charge


@<TRIPOS>ATOM
      1 C14         -2.6570    -1.8110     2.4890 ca         1 W31      -0.089000
      2 C5           0.0150     3.5440     0.2580 ca         1 W31      -0.097000
      3 C6          -1.0250     2.7180    -0.2100 ca         1 W31      -0.080000
      4 C11         -4.1130    -0.4020     0.9450 c3         1 W31       0.225600
      5 C7          -2.0740     3.2480    -0.9840 ca         1 W31      -0.067300
      6 C8          -3.1870     2.3280    -1.4760 c3         1 W31      -0.092100
      7 C9          -3.9150     1.6730    -0.2980 c          1 W31       0.590100
      8 C12         -5.5370    -0.8190     0.5080 c3         1 W31      -0.112100
      9 C13         -3.2200    -1.6150     1.2110 ca         1 W31      -0.094300
     10 C3           1.4870     1.1840     0.5730 ce         1 W31      -0.294600
     11 C2           0.9880     0.0960     1.4690 c          1 W31       0.603300
     12 O10         -3.5140     0.3720    -0.1120 os         1 W31      -0.455100
     13 C15         -1.8580    -2.9380     2.7510 ca         1 W31      -0.115000
     14 C16         -1.6090    -3.8760     1.7350 ca         1 W31      -0.102000
     15 C17         -2.1580    -3.6850     0.4580 ca         1 W31      -0.115000
     16 C18         -2.9600    -2.5600     0.1960 ca         1 W31      -0.089000
     17 O19         -4.7310     2.2590     0.4000 o          1 W31      -0.471000
     18 C20         -2.0790     4.6210    -1.2920 ca         1 W31      -0.092000
     19 C21         -1.0460     5.4530    -0.8260 ca         1 W31      -0.094000
     20 C22         -0.0010     4.9200    -0.0520 ca         1 W31       0.139000
     21 Cl23         1.2800     5.9910     0.5110 cl         1 W31      -0.184000
     22 C24          2.0860     0.9030    -0.6020 c2         1 W31       0.228900
     23 O25          2.5830     1.8560    -1.4010 oh         1 W31      -0.516100
     24 C26          2.2360    -0.4990    -1.1790 c6         1 W31      -0.050200
     25 C27          1.8980    -1.6300    -0.1610 c6         1 W31      -0.005400
     26 C28          0.7290    -1.2410     0.7800 c6         1 W31      -0.176400
     27 C29          1.7120    -3.0360    -0.8050 ca         1 W31      -0.055300
     28 C30          0.6670    -3.3150    -1.7390 ca         1 W31       0.129000
     29 Cl31        -0.5120    -2.1140    -2.2820 cl         1 W31      -0.194000
     30 C32          0.5170    -4.6000    -2.2870 ca         1 W31      -0.102500
     31 C33          1.3870    -5.6370    -1.9300 ca         1 W31      -0.091000
     32 C34          2.4150    -5.3870    -1.0150 ca         1 W31      -0.102500
     33 C35          2.5820    -4.1100    -0.4550 ca         1 W31       0.129000
     34 Cl36         3.9140    -3.9330     0.6950 cl         1 W31      -0.194000
     35 H1          -2.8440    -1.0940     3.2860 ha         1 W31       0.116500
     36 H2          -1.0300     1.6590     0.0310 ha         1 W31       0.119000
     37 H3          -4.1810     0.1890     1.8690 h1         1 W31       0.068700
     38 H4          -3.9200     2.8970    -2.0590 hc         1 W31       0.078700
     39 H5          -2.7470     1.5470    -2.1070 hc         1 W31       0.078700
     40 H6          -6.2040     0.0480     0.4480 hc         1 W31       0.050700
     41 H7          -5.5210    -1.3110    -0.4720 hc         1 W31       0.050700
     42 H8          -5.9640    -1.5180     1.2360 hc         1 W31       0.050700
     43 H9          -1.4310    -3.0820     3.7400 ha         1 W31       0.113000
     44 H10         -0.9880    -4.7470     1.9370 ha         1 W31       0.113000
     45 H11         -1.9630    -4.4080    -0.3310 ha         1 W31       0.113000
     46 H12         -3.3770    -2.4220    -0.7990 ha         1 W31       0.116500
     47 H13         -2.8820     5.0480    -1.8900 ha         1 W31       0.117000
     48 H14         -1.0540     6.5130    -1.0650 ha         1 W31       0.130000
     49 H15          2.4160     2.7080    -0.9480 ho         1 W31       0.499000
     50 H16          1.6130    -0.5600    -2.0750 hc         1 W31       0.082200
     51 H17          3.2660    -0.6370    -1.5350 hc         1 W31       0.082200
     52 H18          2.7700    -1.6510     0.5020 hc         1 W31       0.076700
     53 H19          0.5150    -2.0110     1.5300 hc         1 W31       0.083200
     54 H20         -0.1670    -1.0850     0.1700 hc         1 W31       0.083200
     55 H21         -0.2840    -4.7930    -2.9960 ha         1 W31       0.135500
     56 H22          1.2630    -6.6290    -2.3590 ha         1 W31       0.127000
     57 H23          3.0910    -6.1910    -0.7330 ha         1 W31       0.135500
     58 S4           1.3320     2.8360     1.2490 ss         1 W31      -0.035600
     59 O1           0.7490     0.2570     2.6570 o          1 W31      -0.499100
@<TRIPOS>BOND
     1     1     9 ar  
     2     1    13 ar  
     3     1    35 1   
     4     2     3 ar  
     5     2    20 ar  
     6     2    58 1   
     7     3     5 ar  
     8     3    36 1   
     9     4     8 1   
    10     4     9 1   
    11     4    12 1   
    12     4    37 1   
    13     5     6 1   
    14     5    18 ar  
    15     6     7 1   
    16     6    38 1   
    17     6    39 1   
    18     7    12 1   
    19     7    17 2   
    20     8    40 1   
    21     8    41 1   
    22     8    42 1   
    23     9    16 ar  
    24    10    11 1   
    25    10    22 2   
    26    10    58 1   
    27    11    26 1   
    28    11    59 2   
    29    13    14 ar  
    30    13    43 1   
    31    14    15 ar  
    32    14    44 1   
    33    15    16 ar  
    34    15    45 1   
    35    16    46 1   
    36    18    19 ar  
    37    18    47 1   
    38    19    20 ar  
    39    19    48 1   
    40    20    21 1   
    41    22    23 1   
    42    22    24 1   
    43    23    49 1   
    44    24    25 1   
    45    24    50 1   
    46    24    51 1   
    47    25    26 1   
    48    25    27 1   
    49    25    52 1   
    50    26    53 1   
    51    26    54 1   
    52    27    28 ar  
    53    27    33 ar  
    54    28    29 1   
    55    28    30 ar  
    56    30    31 ar  
    57    30    55 1   
    58    31    32 ar  
    59    31    56 1   
    60    32    33 ar  
    61    32    57 1   
    62    33    34 1   
@<TRIPOS>SUBSTRUCTURE
     1 W31         1 TEMP              0 ****  ****    0 ROOT
