@<TRIPOS>MOLECULE
W32
   62    65     1     0     0
SMALL
bcc


@<TRIPOS>ATOM
      1 C1          -6.0680    -2.7430     2.3180 ca         1 W32      -0.128000
      2 C2          -6.2240    -3.6730     1.3000 ca         1 W32      -0.079000
      3 C3          -1.5100     0.2140     0.5110 ca         1 W32      -0.153000
      4 C4          -5.7020    -1.4380     2.0310 ca         1 W32      -0.105000
      5 C5          -2.8080    -0.2580     0.5800 ca         1 W32      -0.164000
      6 C6          -5.6460    -1.9820    -0.3200 ca         1 W32      -0.086000
      7 C7          -2.3080     2.4160     0.0070 ca         1 W32      -0.109000
      8 C8           0.5990     5.3550    -0.1600 ca         1 W32       0.741900
      9 C9           2.1140     3.1470    -0.2470 ca         1 W32      -0.452400
     10 C10         -6.0110    -3.2890    -0.0170 ca         1 W32      -0.189300
     11 C11         -1.2340     1.5520     0.2240 ca         1 W32       0.151600
     12 C12         -5.4970    -1.0700     0.7100 ca         1 W32       0.090100
     13 C13         -3.8790     0.5990     0.3650 ca         1 W32       0.110100
     14 C14         -3.6020     1.9310     0.0790 ca         1 W32       0.020400
     15 C15          2.6770     4.4430    -0.3200 ca         1 W32       0.760200
     16 C16          0.7110     3.1120    -0.0420 ca         1 W32       0.759200
     17 C17          2.8350     1.9100    -0.4720 ce         1 W32       0.003800
     18 C18          4.1180     1.6620    -0.1700 cf         1 W32      -0.231400
     19 C19          4.6790     0.3590    -0.6350 c          1 W32       0.681300
     20 C20          4.9340     2.7020     0.5340 c3         1 W32      -0.047200
     21 C21          5.1600     3.9250    -0.3480 c3         1 W32       0.239800
     22 C22          7.4400    -4.5970     0.9700 c3         1 W32      -0.224300
     23 C23          6.6870    -0.9790    -1.0030 c3         1 W32       0.134000
     24 C24          6.6900    -2.0250     0.1130 c3         1 W32      -0.222600
     25 C25         -6.2050    -4.2560    -1.1440 c3         1 W32       0.722200
     26 N26          1.8870     5.5400    -0.2850 nb         1 W32      -0.829000
     27 N27         -0.0430     4.2070    -0.0150 nb         1 W32      -0.815000
     28 N28          3.9750     4.7430    -0.4790 nu         1 W32      -0.862900
     29 N30          6.0190     0.2260    -0.5850 ns         1 W32      -0.569900
     30 O31          3.9660    -0.5380    -1.0690 o          1 W32      -0.609100
     31 O32          8.9710    -3.1470    -0.6200 o          1 W32      -0.585300
     32 O33          6.8400    -4.0800    -1.5490 o          1 W32      -0.585300
     33 O34         -5.1850     0.2310     0.4090 os         1 W32      -0.234200
     34 F35         -5.2090    -4.1860    -2.0360 f          1 W32      -0.232967
     35 F36         -6.2720    -5.5220    -0.7260 f          1 W32      -0.232967
     36 F37         -7.3380    -4.0040    -1.8170 f          1 W32      -0.232967
     37 S38          7.5630    -3.4950    -0.4180 s6         1 W32       1.004000
     38 CL1         -4.9200     3.0160    -0.1940 cl         1 W32      -0.084400
     39 H1          -6.2340    -3.0390     3.3440 ha         1 W32       0.144000
     40 H2          -6.5130    -4.6840     1.5490 ha         1 W32       0.153000
     41 H3          -0.6970    -0.4830     0.6770 ha         1 W32       0.136000
     42 H4          -5.5820    -0.7100     2.8230 ha         1 W32       0.155000
     43 H5          -2.9700    -1.3050     0.8010 ha         1 W32       0.147000
     44 H6          -5.4760    -1.6620    -1.3410 ha         1 W32       0.165000
     45 H7          -2.1420     3.4580    -0.2070 ha         1 W32       0.188000
     46 H8          -0.0190     6.2480    -0.1600 h5         1 W32       0.049100
     47 H9           2.2840     1.1220    -0.9770 ha         1 W32       0.149000
     48 H10          4.4210     3.0100     1.4490 hc         1 W32       0.056700
     49 H11          5.9040     2.3320     0.8640 hc         1 W32       0.056700
     50 H12          5.9300     4.5620     0.0880 h1         1 W32       0.048700
     51 H13          5.5290     3.6050    -1.3260 h1         1 W32       0.048700
     52 H14          6.3930    -4.8100     1.1740 h1         1 W32       0.105033
     53 H15          7.9590    -5.5150     0.6950 h1         1 W32       0.105033
     54 H16          7.9150    -4.1460     1.8370 h1         1 W32       0.105033
     55 H17          7.7070    -0.7150    -1.2770 h1         1 W32       0.075700
     56 H18          6.1960    -1.3760    -1.8900 h1         1 W32       0.075700
     57 H19          7.1970    -1.6530     1.0050 h1         1 W32       0.101700
     58 H20          5.6760    -2.3260     0.3770 h1         1 W32       0.101700
     59 H21          4.1370     5.7360    -0.5440 hn         1 W32       0.449800
     60 H22          0.7370     1.1340     0.3140 hn         1 W32       0.449800
     61 H23          6.5920     0.9510    -0.1890 hn         1 W32       0.316500
     62 N29          0.1120     1.9080     0.1560 nu         1 W32      -0.736300
@<TRIPOS>BOND
     1     1     2 ar  
     2     1     4 ar  
     3     1    39 1   
     4     2    10 ar  
     5     2    40 1   
     6     3     5 ar  
     7     3    11 ar  
     8     3    41 1   
     9     4    12 ar  
    10     4    42 1   
    11     5    13 ar  
    12     5    43 1   
    13     6    10 ar  
    14     6    12 ar  
    15     6    44 1   
    16     7    11 ar  
    17     7    14 ar  
    18     7    45 1   
    19     8    26 ar  
    20     8    27 ar  
    21     8    46 1   
    22     9    15 ar  
    23     9    16 ar  
    24     9    17 1   
    25    10    25 1   
    26    11    62 1   
    27    12    33 1   
    28    13    14 ar  
    29    13    33 1   
    30    14    38 1   
    31    15    26 ar  
    32    15    28 1   
    33    16    27 ar  
    34    16    62 1   
    35    17    18 2   
    36    17    47 1   
    37    18    19 1   
    38    18    20 1   
    39    19    29 1   
    40    19    30 2   
    41    20    21 1   
    42    20    48 1   
    43    20    49 1   
    44    21    28 1   
    45    21    50 1   
    46    21    51 1   
    47    22    37 1   
    48    22    52 1   
    49    22    53 1   
    50    22    54 1   
    51    23    24 1   
    52    23    29 1   
    53    23    55 1   
    54    23    56 1   
    55    24    37 1   
    56    24    57 1   
    57    24    58 1   
    58    25    34 1   
    59    25    35 1   
    60    25    36 1   
    61    28    59 1   
    62    29    61 1   
    63    31    37 2   
    64    32    37 2   
    65    60    62 1   
@<TRIPOS>SUBSTRUCTURE
     1 W32         1 TEMP              0 ****  ****    0 ROOT
