@<TRIPOS>MOLECULE
W32
   62    65     1     0     0
SMALL
No Charge or Current Charge


@<TRIPOS>ATOM
      1 C1          -7.0730    -2.8130     1.6450 ca         1 W32      -0.110000
      2 C2          -6.4500    -3.6930     0.7420 ca         1 W32      -0.061000
      3 C3          -1.5370     0.4130     1.3340 ca         1 W32      -0.135000
      4 C4          -6.6520    -1.4750     1.7300 ca         1 W32      -0.087000
      5 C5          -2.8680    -0.0240     1.4660 ca         1 W32      -0.146000
      6 C6          -4.9890    -1.8930    -0.0010 ca         1 W32      -0.068000
      7 C7          -2.2840     2.3260     0.0400 ca         1 W32      -0.091000
      8 C8           0.6560     5.4750     0.4810 ca         1 W32       0.215900
      9 C9           2.0830     3.2590    -0.1300 ca         1 W32      -0.321800
     10 C10         -5.3980    -3.2430    -0.0870 ca         1 W32      -0.189300
     11 C11         -1.2370     1.5930     0.6310 ca         1 W32       0.290000
     12 C12         -5.6050    -1.0170     0.9160 ca         1 W32       0.090100
     13 C13         -3.9120     0.7140     0.8760 ca         1 W32       0.110100
     14 C14         -3.6150     1.8960     0.1680 ca         1 W32       0.112000
     15 C15          2.6330     4.5620    -0.2100 ca         1 W32       0.431900
     16 C16          0.7380     3.2020     0.3000 ca         1 W32       0.430900
     17 C17          2.8120     1.9920    -0.4950 ce         1 W32      -0.046200
     18 C18          4.1480     1.7010    -0.4960 cf         1 W32      -0.231400
     19 C19          4.6070     0.3170    -0.8990 c          1 W32       0.614300
     20 C20          5.1680     2.7790    -0.1320 c3         1 W32      -0.047200
     21 C21          5.0150     4.0110    -1.0360 c3         1 W32       0.239800
     22 C22          7.0550    -4.7220     1.1120 c3         1 W32      -0.335100
     23 C23          6.5790    -1.2190    -1.2140 c3         1 W32       0.134000
     24 C24          6.5000    -2.1810    -0.0190 c3         1 W32      -0.333400
     25 C25         -4.7270    -4.1920    -1.0860 c3         1 W32       0.358300
     26 N26          1.9260     5.6590     0.0930 nb         1 W32      -0.303000
     27 N27          0.0290     4.2970     0.6080 nb         1 W32      -0.289000
     28 N28          3.9300     4.8820    -0.5750 nu         1 W32      -0.918100
     29 N30          5.9620     0.0650    -0.8830 ns         1 W32      -0.502900
     30 O31          3.8170    -0.5570    -1.2290 o          1 W32      -0.609100
     31 O32          8.6990    -3.5460    -0.5870 o          1 W32      -0.514500
     32 O33          6.4770    -4.4150    -1.4460 o          1 W32      -0.514500
     33 O34         -5.2220     0.3030     1.0070 os         1 W32      -0.234200
     34 F35         -3.4170    -3.9060    -1.2630 f          1 W32      -0.111667
     35 F36         -4.7890    -5.4860    -0.6940 f          1 W32      -0.111667
     36 F37         -5.3140    -4.1200    -2.3020 f          1 W32      -0.111667
     37 S38          7.2620    -3.7670    -0.3890 s6         1 W32       1.084000
     38 Cl1         -4.9000     2.8410    -0.5840 cl         1 W32      -0.176000
     39 H1          -7.8840    -3.1680     2.2770 ha         1 W32       0.126000
     40 H2          -6.7960    -4.7240     0.6870 ha         1 W32       0.135000
     41 H3          -0.7380    -0.1650     1.7910 ha         1 W32       0.118000
     42 H4          -7.1350    -0.7950     2.4270 ha         1 W32       0.137000
     43 H5          -3.0850    -0.9300     2.0280 ha         1 W32       0.129000
     44 H6          -4.1990    -1.5220    -0.6490 ha         1 W32       0.147000
     45 H7          -2.0710     3.2220    -0.5310 ha         1 W32       0.170000
     46 H8           0.0820     6.3670     0.7280 h5         1 W32       0.049100
     47 H9           2.1420     1.1880    -0.8080 ha         1 W32       0.199000
     48 H10          5.0580     3.0750     0.9190 hc         1 W32       0.056700
     49 H11          6.2040     2.4430    -0.2290 hc         1 W32       0.056700
     50 H12          5.9570     4.5760    -1.0340 h1         1 W32       0.048700
     51 H13          4.8310     3.6810    -2.0680 h1         1 W32       0.048700
     52 H14          5.9810    -4.8070     1.3080 h1         1 W32       0.105033
     53 H15          7.5050    -5.7060     0.9410 h1         1 W32       0.105033
     54 H16          7.5660    -4.1880     1.9200 h1         1 W32       0.105033
     55 H17          7.6290    -1.0430    -1.4890 h1         1 W32       0.075700
     56 H18          6.0690    -1.6510    -2.0870 h1         1 W32       0.075700
     57 H19          7.0290    -1.7710     0.8480 h1         1 W32       0.101700
     58 H20          5.4570    -2.3880     0.2450 h1         1 W32       0.101700
     59 H21          4.1250     5.8830    -0.5590 hn         1 W32       0.505000
     60 H22          0.7610     1.2420     0.7440 hn         1 W32       0.505000
     61 H23          6.5640     0.8250    -0.5960 hn         1 W32       0.316500
     62 N29          0.1020     1.9830     0.5140 nu         1 W32      -0.929900
@<TRIPOS>BOND
     1     1     2 ar  
     2     1     4 ar  
     3     1    39 1   
     4     2    10 ar  
     5     2    40 1   
     6     3     5 ar  
     7     3    11 ar  
     8     3    41 1   
     9     4    12 ar  
    10     4    42 1   
    11     5    13 ar  
    12     5    43 1   
    13     6    10 ar  
    14     6    12 ar  
    15     6    44 1   
    16     7    11 ar  
    17     7    14 ar  
    18     7    45 1   
    19     8    26 ar  
    20     8    27 ar  
    21     8    46 1   
    22     9    15 ar  
    23     9    16 ar  
    24     9    17 1   
    25    10    25 1   
    26    11    62 1   
    27    12    33 1   
    28    13    14 ar  
    29    13    33 1   
    30    14    38 1   
    31    15    26 ar  
    32    15    28 1   
    33    16    27 ar  
    34    16    62 1   
    35    17    18 2   
    36    17    47 1   
    37    18    19 1   
    38    18    20 1   
    39    19    29 1   
    40    19    30 2   
    41    20    21 1   
    42    20    48 1   
    43    20    49 1   
    44    21    28 1   
    45    21    50 1   
    46    21    51 1   
    47    22    37 1   
    48    22    52 1   
    49    22    53 1   
    50    22    54 1   
    51    23    24 1   
    52    23    29 1   
    53    23    55 1   
    54    23    56 1   
    55    24    37 1   
    56    24    57 1   
    57    24    58 1   
    58    25    34 1   
    59    25    35 1   
    60    25    36 1   
    61    28    59 1   
    62    29    61 1   
    63    31    37 2   
    64    32    37 2   
    65    60    62 1   
@<TRIPOS>SUBSTRUCTURE
     1 W32         1 TEMP              0 ****  ****    0 ROOT
