@<TRIPOS>MOLECULE
W33
   45    47     1     0     0
SMALL
No Charge or Current Charge


@<TRIPOS>ATOM
      1 O1          -0.0610     1.1670     7.2290 os         1 W33      -0.077700
      2 N2          -0.6280     0.8780     8.5270 nc         1 W33      -0.364300
      3 C3          -0.3290    -0.3900     8.7400 cd         1 W33       0.279300
      4 C31         -0.7500    -1.0800    10.0060 c3         1 W33      -0.133400
      5 C4           0.3940    -0.9570     7.6780 cd         1 W33      -0.250000
      6 C5           0.5440     0.0270     6.7560 cc         1 W33       0.184300
      7 C1C          1.2230     0.0410     5.4150 c3         1 W33      -0.116700
      8 C2C          0.2260     0.0200     4.2360 c3         1 W33      -0.072400
      9 C3C          0.9200     0.0250     2.8570 c3         1 W33      -0.075400
     10 C4C         -0.0780     0.0030     1.6780 c3         1 W33      -0.082400
     11 C5C          0.6170     0.0080     0.3030 c3         1 W33       0.164600
     12 O1B         -0.4100    -0.0130    -0.7010 os         1 W33      -0.327100
     13 C1B         -0.1240    -0.0150    -2.0550 ca         1 W33       0.178100
     14 C2B          1.2020     0.0040    -2.5400 ca         1 W33      -0.215000
     15 C3B          1.4510     0.0010    -3.9240 ca         1 W33      -0.025000
     16 C4B          0.3830    -0.0200    -4.8470 ca         1 W33      -0.166900
     17 C5B         -0.9410    -0.0390    -4.3560 ca         1 W33      -0.021000
     18 C6B         -1.1930    -0.0370    -2.9740 ca         1 W33       0.061000
     19 Cl1         -2.8660    -0.0610    -2.4100 cl         1 W33      -0.178000
     20 C2A          0.6510    -0.0220    -6.3190 ce         1 W33       0.644200
     21 N3A         -0.2770    -0.0270    -7.2250 n2         1 W33      -0.642900
     22 C4A          0.4320     0.1010    -8.5210 c5         1 W33       0.071800
     23 C5A          1.8770    -0.3000    -8.1590 c5         1 W33       0.115600
     24 O1A          1.9550     0.0240    -6.7610 os         1 W33      -0.456600
     25 H311        -0.3200    -0.5840    10.8840 hc         1 W33       0.055700
     26 H312        -1.8410    -1.0720    10.1110 hc         1 W33       0.055700
     27 H313        -0.4190    -2.1240    10.0150 hc         1 W33       0.055700
     28 H4           0.7580    -1.9750     7.6060 ha         1 W33       0.151000
     29 H1C1         1.8560     0.9340     5.3400 hc         1 W33       0.062700
     30 H1C2         1.8930    -0.8240     5.3390 hc         1 W33       0.062700
     31 H2C1        -0.4080    -0.8720     4.3200 hc         1 W33       0.055200
     32 H2C2        -0.4380     0.8910     4.3100 hc         1 W33       0.055200
     33 H3C1         1.5550     0.9170     2.7760 hc         1 W33       0.040200
     34 H3C2         1.5830    -0.8470     2.7840 hc         1 W33       0.040200
     35 H4C1        -0.7100    -0.8900     1.7540 hc         1 W33       0.061700
     36 H4C2        -0.7390     0.8760     1.7460 hc         1 W33       0.061700
     37 H5C1         1.2350     0.9100     0.2070 h1         1 W33       0.037700
     38 H5C2         1.2640    -0.8750     0.2150 h1         1 W33       0.037700
     39 H2B          2.0510     0.0210    -1.8630 ha         1 W33       0.122000
     40 H3B          2.4810     0.0160    -4.2750 ha         1 W33       0.131000
     41 H5B         -1.7840    -0.0560    -5.0440 ha         1 W33       0.154000
     42 H4A1         0.0030    -0.5610    -9.2870 h1         1 W33       0.070700
     43 H4A2         0.3830     1.1350    -8.8900 h1         1 W33       0.070700
     44 H5A1         2.0340    -1.3810    -8.2820 h1         1 W33       0.062200
     45 H5A2         2.6410     0.2450    -8.7290 h1         1 W33       0.062200
@<TRIPOS>BOND
     1     1     2 1   
     2     1     6 1   
     3     2     3 2   
     4     3     4 1   
     5     3     5 1   
     6     4    25 1   
     7     4    26 1   
     8     4    27 1   
     9     5     6 2   
    10     5    28 1   
    11     6     7 1   
    12     7     8 1   
    13     7    29 1   
    14     7    30 1   
    15     8     9 1   
    16     8    31 1   
    17     8    32 1   
    18     9    10 1   
    19     9    33 1   
    20     9    34 1   
    21    10    11 1   
    22    10    35 1   
    23    10    36 1   
    24    11    12 1   
    25    11    37 1   
    26    11    38 1   
    27    12    13 1   
    28    13    14 ar  
    29    13    18 ar  
    30    14    15 ar  
    31    14    39 1   
    32    15    16 ar  
    33    15    40 1   
    34    16    17 ar  
    35    16    20 1   
    36    17    18 ar  
    37    17    41 1   
    38    18    19 1   
    39    20    21 2   
    40    20    24 1   
    41    21    22 1   
    42    22    23 1   
    43    22    42 1   
    44    22    43 1   
    45    23    24 1   
    46    23    44 1   
    47    23    45 1   
@<TRIPOS>SUBSTRUCTURE
     1 W33         1 TEMP              0 ****  ****    0 ROOT
