@<TRIPOS>MOLECULE
W33
   45    47     1     0     0
SMALL
bcc


@<TRIPOS>ATOM
      1 O1          -0.2660     0.9590     7.0070 os         1 W33      -0.122100
      2 N2          -0.7390     0.7220     8.2680 nc         1 W33      -0.364300
      3 C3          -0.2340    -0.4180     8.6410 cd         1 W33       0.344600
      4 C31         -0.5330    -0.9950     9.9780 c3         1 W33      -0.133400
      5 C4           0.5910    -0.9610     7.6210 cd         1 W33      -0.398600
      6 C5           0.5290    -0.0470     6.6240 cc         1 W33       0.294000
      7 C1C          1.1350     0.0190     5.2710 c3         1 W33      -0.116700
      8 C2C          0.1040     0.0130     4.1400 c3         1 W33      -0.072400
      9 C3C          0.7720     0.0120     2.7720 c3         1 W33      -0.075400
     10 C4C         -0.2390     0.0230     1.6320 c3         1 W33      -0.082400
     11 C5C          0.4550    -0.0160     0.2880 c3         1 W33       0.141400
     12 O1B         -0.5430     0.0120    -0.7280 os         1 W33      -0.303900
     13 C1B         -0.1690    -0.0040    -2.0060 ca         1 W33       0.178100
     14 C2B          1.1480    -0.0730    -2.4540 ca         1 W33      -0.233000
     15 C3B          1.4330    -0.0870    -3.8110 ca         1 W33      -0.043000
     16 C4B          0.4130    -0.0320    -4.7540 ca         1 W33      -0.166900
     17 C5B         -0.9090     0.0380    -4.3140 ca         1 W33      -0.039000
     18 C6B         -1.1900     0.0510    -2.9670 ca         1 W33      -0.030600
     19 CL1         -2.8300     0.1360    -2.4300 cl         1 W33      -0.086400
     20 C2A          0.6860    -0.0460    -6.1930 ce         1 W33       0.644200
     21 N3A         -0.1880     0.0090    -7.1080 n2         1 W33      -0.642900
     22 C4A          0.5210    -0.0320    -8.3780 c5         1 W33       0.071800
     23 C5A          2.0070    -0.1400    -7.9890 c5         1 W33       0.092400
     24 O1A          1.9780    -0.1250    -6.5520 os         1 W33      -0.433400
     25 H311         0.3830    -1.1160    10.5560 hc         1 W33       0.055700
     26 H312        -1.2150    -0.3580    10.5380 hc         1 W33       0.055700
     27 H313        -0.9860    -1.9820     9.8770 hc         1 W33       0.055700
     28 H4           1.1410    -1.8870     7.6350 ha         1 W33       0.169000
     29 H1C1         1.7580     0.9160     5.1940 hc         1 W33       0.062700
     30 H1C2         1.8050    -0.8350     5.1670 hc         1 W33       0.062700
     31 H2C1        -0.5360    -0.8690     4.2360 hc         1 W33       0.055200
     32 H2C2        -0.5500     0.8840     4.2280 hc         1 W33       0.055200
     33 H3C1         1.4310     0.8830     2.6870 hc         1 W33       0.040200
     34 H3C2         1.4170    -0.8690     2.6850 hc         1 W33       0.040200
     35 H4C1        -0.9060    -0.8390     1.7240 hc         1 W33       0.061700
     36 H4C2        -0.8610     0.9200     1.6990 hc         1 W33       0.061700
     37 H5C1         1.1280     0.8420     0.1780 h1         1 W33       0.037700
     38 H5C2         1.0580    -0.9270     0.1990 h1         1 W33       0.037700
     39 H2B          1.9690    -0.1170    -1.7530 ha         1 W33       0.140000
     40 H3B          2.4680    -0.1420    -4.1180 ha         1 W33       0.149000
     41 H5B         -1.7170     0.0820    -5.0320 ha         1 W33       0.172000
     42 H4A1         0.1850    -0.8840    -8.9730 h1         1 W33       0.070700
     43 H4A2         0.3070     0.8670    -8.9600 h1         1 W33       0.070700
     44 H5A1         2.4730    -1.0680    -8.3200 h1         1 W33       0.062200
     45 H5A2         2.6090     0.7000    -8.3360 h1         1 W33       0.062200
@<TRIPOS>BOND
     1     1     2 1   
     2     1     6 1   
     3     2     3 2   
     4     3     4 1   
     5     3     5 1   
     6     4    25 1   
     7     4    26 1   
     8     4    27 1   
     9     5     6 2   
    10     5    28 1   
    11     6     7 1   
    12     7     8 1   
    13     7    29 1   
    14     7    30 1   
    15     8     9 1   
    16     8    31 1   
    17     8    32 1   
    18     9    10 1   
    19     9    33 1   
    20     9    34 1   
    21    10    11 1   
    22    10    35 1   
    23    10    36 1   
    24    11    12 1   
    25    11    37 1   
    26    11    38 1   
    27    12    13 1   
    28    13    14 ar  
    29    13    18 ar  
    30    14    15 ar  
    31    14    39 1   
    32    15    16 ar  
    33    15    40 1   
    34    16    17 ar  
    35    16    20 1   
    36    17    18 ar  
    37    17    41 1   
    38    18    19 1   
    39    20    21 2   
    40    20    24 1   
    41    21    22 1   
    42    22    23 1   
    43    22    42 1   
    44    22    43 1   
    45    23    24 1   
    46    23    44 1   
    47    23    45 1   
@<TRIPOS>SUBSTRUCTURE
     1 W33         1 TEMP              0 ****  ****    0 ROOT
