@<TRIPOS>MOLECULE
W34
   32    33     1     0     0
SMALL
No Charge or Current Charge


@<TRIPOS>ATOM
      1 C4           4.2230    27.3490    16.3220 c6         1 W34      -0.010400
      2 C5           2.7660    27.7850    16.0520 ca         1 W34      -0.043300
      3 C6           2.2390    28.8660    16.7860 ca         1 W34      -0.152000
      4 C7           0.9200    29.3020    16.5790 ca         1 W34      -0.074000
      5 C8           0.1070    28.6600    15.6320 ca         1 W34      -0.200000
      6 C10         -1.4960    27.2610    13.6520 c3         1 W34       0.148900
      7 N            3.4780    25.3820    17.7190 n8         1 W34      -0.987200
      8 C            4.3730    26.5730    17.6690 c6         1 W34       0.135500
      9 C3           4.9050    26.5550    15.1640 c6         1 W34      -0.100400
     10 C2           6.3740    26.2250    15.5260 c6         1 W34       0.155600
     11 O            6.4230    25.4860    16.7650 os         1 W34      -0.434000
     12 C1           5.8790    26.2070    17.8990 c6         1 W34       0.158600
     13 C11          1.9380    27.1440    15.1020 ca         1 W34      -0.137000
     14 C9           0.6170    27.5740    14.8890 ca         1 W34       0.137100
     15 O1          -0.1340    26.9020    13.9470 os         1 W34      -0.342100
     16 H1           4.8020    28.2770    16.4320 hc         1 W34       0.048700
     17 H2           2.8560    29.3750    17.5240 ha         1 W34       0.111000
     18 H3           0.5280    30.1390    17.1540 ha         1 W34       0.110000
     19 H4          -0.9100    29.0150    15.4910 ha         1 W34       0.117000
     20 H5          -1.9040    26.6020    12.8760 h1         1 W34       0.040033
     21 H6          -2.1270    27.1660    14.5450 h1         1 W34       0.040033
     22 H7          -1.5560    28.2940    13.2860 h1         1 W34       0.040033
     23 H8           3.3870    25.0740    18.6940 hn         1 W34       0.397000
     24 H9           2.5310    25.6860    17.4700 hn         1 W34       0.397000
     25 H11          4.0480    27.2360    18.4850 h1         1 W34       0.019700
     26 H12          4.8740    27.1390    14.2340 hc         1 W34       0.060200
     27 H13          4.3760    25.6130    14.9710 hc         1 W34       0.060200
     28 H14          6.8290    25.6190    14.7300 h1         1 W34       0.040700
     29 H15          6.9610    27.1500    15.6300 h1         1 W34       0.040700
     30 H16          5.9860    25.5900    18.8020 h1         1 W34       0.041200
     31 H17          6.4650    27.1260    18.0500 h1         1 W34       0.041200
     32 H18          2.3010    26.3030    14.5210 ha         1 W34       0.137000
@<TRIPOS>BOND
     1     1     2 1   
     2     1     8 1   
     3     1     9 1   
     4     1    16 1   
     5     2     3 ar  
     6     2    13 ar  
     7     3     4 ar  
     8     3    17 1   
     9     4     5 ar  
    10     4    18 1   
    11     5    14 ar  
    12     5    19 1   
    13     6    15 1   
    14     6    20 1   
    15     6    21 1   
    16     6    22 1   
    17     7     8 1   
    18     7    23 1   
    19     7    24 1   
    20     8    12 1   
    21     8    25 1   
    22     9    10 1   
    23     9    26 1   
    24     9    27 1   
    25    10    11 1   
    26    10    28 1   
    27    10    29 1   
    28    11    12 1   
    29    12    30 1   
    30    12    31 1   
    31    13    14 ar  
    32    13    32 1   
    33    14    15 1   
@<TRIPOS>SUBSTRUCTURE
     1 W34         1 TEMP              0 ****  ****    0 ROOT
