@<TRIPOS>MOLECULE
W34
   32    33     1     0     0
SMALL
abcg2


@<TRIPOS>ATOM
      1 C4           4.2020    27.3930    16.3380 c6         1 W34      -0.010400
      2 C5           2.7980    27.8500    16.0320 ca         1 W34      -0.043300
      3 C6           2.3180    29.0170    16.6320 ca         1 W34      -0.152000
      4 C7           1.0220    29.4410    16.3980 ca         1 W34      -0.074000
      5 C8           0.1690    28.7210    15.5670 ca         1 W34      -0.200000
      6 C10         -1.4290    27.1520    13.8760 c3         1 W34       0.148900
      7 N            3.4460    25.3140    17.4220 n8         1 W34      -0.987200
      8 C            4.2530    26.5090    17.6000 c6         1 W34       0.135500
      9 C3           4.9160    26.6850    15.1890 c6         1 W34      -0.100400
     10 C2           6.3230    26.2990    15.6190 c6         1 W34       0.155600
     11 O            6.3180    25.4880    16.7740 os         1 W34      -0.434000
     12 C1           5.7050    26.1290    17.8660 c6         1 W34       0.158600
     13 C11          1.9480    27.1300    15.2040 ca         1 W34      -0.137000
     14 C9           0.6390    27.5560    14.9680 ca         1 W34       0.137100
     15 O1          -0.0940    26.7760    14.1490 os         1 W34      -0.342100
     16 H1           4.7800    28.2940    16.5820 hc         1 W34       0.048700
     17 H2           2.9690    29.5940    17.2790 ha         1 W34       0.111000
     18 H3           0.6600    30.3500    16.8610 ha         1 W34       0.110000
     19 H4          -0.8370    29.0820    15.4010 ha         1 W34       0.117000
     20 H5          -1.8320    26.3970    13.2040 h1         1 W34       0.040033
     21 H6          -2.0400    27.1780    14.7820 h1         1 W34       0.040033
     22 H7          -1.4880    28.1260    13.3850 h1         1 W34       0.040033
     23 H8           3.5150    24.7350    18.2500 hn         1 W34       0.397000
     24 H9           2.4690    25.5710    17.3500 hn         1 W34       0.397000
     25 H11          3.9290    27.1220    18.4560 h1         1 W34       0.019700
     26 H12          4.9730    27.3370    14.3150 hc         1 W34       0.060200
     27 H13          4.3740    25.7860    14.8910 hc         1 W34       0.060200
     28 H14          6.8250    25.7310    14.8340 h1         1 W34       0.040700
     29 H15          6.9160    27.2090    15.7970 h1         1 W34       0.040700
     30 H16          5.7680    25.4430    18.7150 h1         1 W34       0.041200
     31 H17          6.2570    27.0400    18.1420 h1         1 W34       0.041200
     32 H18          2.2840    26.2210    14.7200 ha         1 W34       0.137000
@<TRIPOS>BOND
     1     1     2 1   
     2     1     8 1   
     3     1     9 1   
     4     1    16 1   
     5     2     3 ar  
     6     2    13 ar  
     7     3     4 ar  
     8     3    17 1   
     9     4     5 ar  
    10     4    18 1   
    11     5    14 ar  
    12     5    19 1   
    13     6    15 1   
    14     6    20 1   
    15     6    21 1   
    16     6    22 1   
    17     7     8 1   
    18     7    23 1   
    19     7    24 1   
    20     8    12 1   
    21     8    25 1   
    22     9    10 1   
    23     9    26 1   
    24     9    27 1   
    25    10    11 1   
    26    10    28 1   
    27    10    29 1   
    28    11    12 1   
    29    12    30 1   
    30    12    31 1   
    31    13    14 ar  
    32    13    32 1   
    33    14    15 1   
@<TRIPOS>SUBSTRUCTURE
     1 W34         1 TEMP              0 ****  ****    0 ROOT
