@<TRIPOS>MOLECULE
W35
   45    47     1     0     0
SMALL
abcg2


@<TRIPOS>ATOM
      1 O1          -0.3010     1.0500     6.7380 os         1 W35      -0.076700
      2 N2          -0.7880     0.8350     7.9970 nc         1 W35      -0.365300
      3 C3          -0.3850    -0.3520     8.3490 cd         1 W35       0.279300
      4 C31         -0.7340    -0.9250     9.6750 c3         1 W35      -0.133400
      5 C4           0.3850    -0.9480     7.3160 cd         1 W35      -0.250000
      6 C5           0.4000    -0.0160     6.3340 cc         1 W35       0.184300
      7 C1C          0.9950     0.0160     4.9750 c3         1 W35      -0.116700
      8 C2C         -0.0520     0.0400     3.8590 c3         1 W35      -0.073400
      9 C3C          0.5920     0.0090     2.4790 c3         1 W35      -0.074400
     10 C4C         -0.4430     0.0560     1.3610 c3         1 W35      -0.082400
     11 C5C          0.2070    -0.0350    -0.0030 c3         1 W35       0.166600
     12 O1B         -0.8180     0.0490    -0.9840 os         1 W35      -0.347100
     13 C1B         -0.4920     0.0320    -2.2840 ca         1 W35       0.171100
     14 C2B         -1.5460     0.1840    -3.1890 ca         1 W35      -0.190500
     15 C3B         -1.3060     0.1780    -4.5480 ca         1 W35      -0.026500
     16 C4B         -0.0090     0.0190    -5.0430 ca         1 W35      -0.175900
     17 C5B          1.0350    -0.1330    -4.1340 ca         1 W35      -0.026500
     18 C6B          0.8070    -0.1280    -2.7680 ca         1 W35      -0.190500
     19 C2A          0.2700     0.0100    -6.4790 ce         1 W35       0.649200
     20 N3A          1.4100    -0.1290    -7.0130 n2         1 W35      -0.649900
     21 C4A          1.2180    -0.0810    -8.4550 c5         1 W35       0.073800
     22 C5A         -0.2940     0.1410    -8.6370 c5         1 W35       0.115600
     23 O1A         -0.7920     0.1650    -7.2900 os         1 W35      -0.456600
     24 H311         0.1680    -1.1760    10.2340 hc         1 W35       0.055700
     25 H312        -1.3220    -0.2260    10.2650 hc         1 W35       0.055700
     26 H313        -1.3080    -1.8450     9.5560 hc         1 W35       0.055700
     27 H4           0.8520    -1.9190     7.3130 ha         1 W35       0.151000
     28 H1C1         1.6500     0.8870     4.8820 hc         1 W35       0.063200
     29 H1C2         1.6300    -0.8650     4.8700 hc         1 W35       0.063200
     30 H2C1        -0.7200    -0.8190     3.9710 hc         1 W35       0.053700
     31 H2C2        -0.6750     0.9330     3.9530 hc         1 W35       0.053700
     32 H3C1         1.2800     0.8550     2.3780 hc         1 W35       0.040200
     33 H3C2         1.2010    -0.8960     2.3840 hc         1 W35       0.040200
     34 H4C1        -1.1510    -0.7690     1.4820 hc         1 W35       0.058700
     35 H4C2        -1.0160     0.9840     1.4310 hc         1 W35       0.058700
     36 H5C1         0.9290     0.7780    -0.1400 h1         1 W35       0.036200
     37 H5C2         0.7520    -0.9810    -0.1010 h1         1 W35       0.036200
     38 H2B         -2.5540     0.3100    -2.8150 ha         1 W35       0.125000
     39 H3B         -2.1420     0.3010    -5.2220 ha         1 W35       0.133000
     40 H5B          2.0460    -0.2590    -4.4990 ha         1 W35       0.133000
     41 H6B          1.6490    -0.2490    -2.1010 ha         1 W35       0.125000
     42 H4A1         1.8100     0.7250    -8.8920 h1         1 W35       0.068200
     43 H4A2         1.5580    -1.0120    -8.9130 h1         1 W35       0.068200
     44 H5A1        -0.5370     1.0890    -9.1180 h1         1 W35       0.061200
     45 H5A2        -0.7880    -0.6660    -9.1800 h1         1 W35       0.061200
@<TRIPOS>BOND
     1     1     2 1   
     2     1     6 1   
     3     2     3 2   
     4     3     4 1   
     5     3     5 1   
     6     4    24 1   
     7     4    25 1   
     8     4    26 1   
     9     5     6 2   
    10     5    27 1   
    11     6     7 1   
    12     7     8 1   
    13     7    28 1   
    14     7    29 1   
    15     8     9 1   
    16     8    30 1   
    17     8    31 1   
    18     9    10 1   
    19     9    32 1   
    20     9    33 1   
    21    10    11 1   
    22    10    34 1   
    23    10    35 1   
    24    11    12 1   
    25    11    36 1   
    26    11    37 1   
    27    12    13 1   
    28    13    14 ar  
    29    13    18 ar  
    30    14    15 ar  
    31    14    38 1   
    32    15    16 ar  
    33    15    39 1   
    34    16    17 ar  
    35    16    19 1   
    36    17    18 ar  
    37    17    40 1   
    38    18    41 1   
    39    19    20 2   
    40    19    23 1   
    41    20    21 1   
    42    21    22 1   
    43    21    42 1   
    44    21    43 1   
    45    22    23 1   
    46    22    44 1   
    47    22    45 1   
@<TRIPOS>SUBSTRUCTURE
     1 W35         1 TEMP              0 ****  ****    0 ROOT
