@<TRIPOS>MOLECULE
W35
   45    47     1     0     0
SMALL
No Charge or Current Charge


@<TRIPOS>ATOM
      1 O1          -0.1080     1.2120     6.9430 os         1 W35      -0.076700
      2 N2          -0.6660     0.9630     8.2530 nc         1 W35      -0.365300
      3 C3          -0.4500    -0.3230     8.4610 cd         1 W35       0.279300
      4 C31         -0.8910    -0.9820     9.7370 c3         1 W35      -0.133400
      5 C4           0.2090    -0.9390     7.3850 cd         1 W35      -0.250000
      6 C5           0.4070     0.0330     6.4580 cc         1 W35       0.184300
      7 C1C          1.0560     0.0000     5.1040 c3         1 W35      -0.116700
      8 C2C          0.0350     0.0470     3.9460 c3         1 W35      -0.073400
      9 C3C          0.6980     0.0040     2.5520 c3         1 W35      -0.074400
     10 C4C         -0.3240     0.0510     1.3950 c3         1 W35      -0.082400
     11 C5C          0.3400     0.0080     0.0050 c3         1 W35       0.166600
     12 O1B         -0.7060     0.0570    -0.9790 os         1 W35      -0.347100
     13 C1B         -0.4420     0.0350    -2.3330 ca         1 W35       0.171100
     14 C2B         -1.5320     0.0870    -3.2140 ca         1 W35      -0.190500
     15 C3B         -1.3290     0.0680    -4.6040 ca         1 W35      -0.026500
     16 C4B         -0.0230    -0.0030    -5.1350 ca         1 W35      -0.175900
     17 C5B          1.0730    -0.0560    -4.2440 ca         1 W35      -0.026500
     18 C6B          0.8660    -0.0370    -2.8530 ca         1 W35      -0.190500
     19 C2A          0.1940    -0.0250    -6.6160 ce         1 W35       0.649200
     20 N3A          1.3590    -0.1040    -7.1800 n2         1 W35      -0.649900
     21 C4A          1.0910    -0.2200    -8.6340 c5         1 W35       0.073800
     22 C5A         -0.3630     0.2840    -8.7530 c5         1 W35       0.115600
     23 O1A         -0.9020     0.0020    -7.4510 os         1 W35      -0.456600
     24 H311        -0.4120    -0.5150    10.6050 hc         1 W35       0.055700
     25 H312        -1.9770    -0.9020     9.8640 hc         1 W35       0.055700
     26 H313        -0.6300    -2.0460     9.7410 hc         1 W35       0.055700
     27 H4           0.5000    -1.9790     7.3070 ha         1 W35       0.151000
     28 H1C1         1.7470     0.8470     5.0130 hc         1 W35       0.063200
     29 H1C2         1.6630    -0.9090     5.0150 hc         1 W35       0.063200
     30 H2C1        -0.6570    -0.7990     4.0440 hc         1 W35       0.053700
     31 H2C2        -0.5660     0.9620     4.0330 hc         1 W35       0.053700
     32 H3C1         1.3900     0.8510     2.4560 hc         1 W35       0.040200
     33 H3C2         1.2980    -0.9110     2.4660 hc         1 W35       0.040200
     34 H4C1        -1.0140    -0.7960     1.4860 hc         1 W35       0.058700
     35 H4C2        -0.9220     0.9670     1.4760 hc         1 W35       0.058700
     36 H5C1         1.0170     0.8660    -0.1050 h1         1 W35       0.036200
     37 H5C2         0.9230    -0.9170    -0.0940 h1         1 W35       0.036200
     38 H2B         -2.5410     0.1420    -2.8160 ha         1 W35       0.125000
     39 H3B         -2.1930     0.1090    -5.2660 ha         1 W35       0.133000
     40 H5B          2.0910    -0.1120    -4.6270 ha         1 W35       0.133000
     41 H6B          1.7320    -0.0780    -2.2000 ha         1 W35       0.125000
     42 H4A1         1.7850     0.3920    -9.2260 h1         1 W35       0.068200
     43 H4A2         1.1810    -1.2650    -8.9630 h1         1 W35       0.068200
     44 H5A1        -0.3960     1.3690    -8.9230 h1         1 W35       0.061200
     45 H5A2        -0.9430    -0.2250    -9.5340 h1         1 W35       0.061200
@<TRIPOS>BOND
     1     1     2 1   
     2     1     6 1   
     3     2     3 2   
     4     3     4 1   
     5     3     5 1   
     6     4    24 1   
     7     4    25 1   
     8     4    26 1   
     9     5     6 2   
    10     5    27 1   
    11     6     7 1   
    12     7     8 1   
    13     7    28 1   
    14     7    29 1   
    15     8     9 1   
    16     8    30 1   
    17     8    31 1   
    18     9    10 1   
    19     9    32 1   
    20     9    33 1   
    21    10    11 1   
    22    10    34 1   
    23    10    35 1   
    24    11    12 1   
    25    11    36 1   
    26    11    37 1   
    27    12    13 1   
    28    13    14 ar  
    29    13    18 ar  
    30    14    15 ar  
    31    14    38 1   
    32    15    16 ar  
    33    15    39 1   
    34    16    17 ar  
    35    16    19 1   
    36    17    18 ar  
    37    17    40 1   
    38    18    41 1   
    39    19    20 2   
    40    19    23 1   
    41    20    21 1   
    42    21    22 1   
    43    21    42 1   
    44    21    43 1   
    45    22    23 1   
    46    22    44 1   
    47    22    45 1   
@<TRIPOS>SUBSTRUCTURE
     1 W35         1 TEMP              0 ****  ****    0 ROOT
