@<TRIPOS>MOLECULE
W36
   28    28     1     0     0
SMALL
No Charge or Current Charge


@<TRIPOS>ATOM
      1 N1          -5.0350    16.4540   -31.4730 n8         1 W36      -0.998200
      2 C7          -5.7800    15.2790   -33.4660 c3         1 W36      -0.349400
      3 C8          -5.0300    16.4990   -32.9390 c3         1 W36       0.186800
      4 O1          -6.4480    13.9780   -35.6970 o          1 W36      -0.539000
      5 C1          -1.0530    12.7060   -34.6710 ca         1 W36      -0.133300
      6 C5          -1.9230    14.8170   -35.5390 ca         1 W36      -0.193000
      7 C6          -0.8410    14.0030   -35.1790 ca         1 W36       0.194000
      8 C4          -3.2370    14.3550   -35.3940 ca         1 W36       0.345000
      9 C3          -3.4560    13.0570   -34.8960 ca         1 W36      -0.167000
     10 C2          -2.3720    12.2370   -34.5340 ca         1 W36      -0.050000
     11 S           -5.8460    15.2370   -35.2550 s6         1 W36       1.264100
     12 O           -6.3600    16.5160   -35.7460 o          1 W36      -0.539000
     13 N           -4.2700    15.2040   -35.7660 nu         1 W36      -0.952100
     14 C            0.1250    11.8210   -34.2810 c3         1 W36      -0.036800
     15 H1          -4.5830    17.3020   -31.1110 hn         1 W36       0.400000
     16 H2          -6.0030    16.5400   -31.1410 hn         1 W36       0.400000
     17 H4          -6.8210    15.2810   -33.1310 h1         1 W36       0.110200
     18 H5          -5.2910    14.3530   -33.1520 h1         1 W36       0.110200
     19 H6          -3.9890    16.4950   -33.2920 h1         1 W36       0.040200
     20 H7          -5.5170    17.4280   -33.2730 h1         1 W36       0.040200
     21 H8          -1.7320    15.8120   -35.9290 ha         1 W36       0.134000
     22 H9          -4.4600    12.6630   -34.7890 ha         1 W36       0.128000
     23 H10         -2.5620    11.2370   -34.1500 ha         1 W36       0.121000
     24 H11         -4.0450    16.1560   -36.0180 hn         1 W36       0.516000
     25 H12          0.7300    12.2950   -33.4990 hc         1 W36       0.048700
     26 H13         -0.2050    10.8470   -33.8980 hc         1 W36       0.048700
     27 H14          0.7780    11.6330   -35.1420 hc         1 W36       0.048700
     28 F            0.4170    14.4770   -35.3260 f          1 W36      -0.182000
@<TRIPOS>BOND
     1     1     3 1   
     2     1    15 1   
     3     1    16 1   
     4     2     3 1   
     5     2    11 1   
     6     2    17 1   
     7     2    18 1   
     8     3    19 1   
     9     3    20 1   
    10     4    11 2   
    11     5     7 ar  
    12     5    10 ar  
    13     5    14 1   
    14     6     7 ar  
    15     6     8 ar  
    16     6    21 1   
    17     7    28 1   
    18     8     9 ar  
    19     8    13 1   
    20     9    10 ar  
    21     9    22 1   
    22    10    23 1   
    23    11    12 2   
    24    11    13 1   
    25    13    24 1   
    26    14    25 1   
    27    14    26 1   
    28    14    27 1   
@<TRIPOS>SUBSTRUCTURE
     1 W36         1 TEMP              0 ****  ****    0 ROOT
