@<TRIPOS>MOLECULE
W36
   28    28     1     0     0
SMALL
abcg2


@<TRIPOS>ATOM
      1 N1          -5.6810    16.6070   -31.3660 n8         1 W36      -0.998200
      2 C7          -5.9020    15.3620   -33.4450 c3         1 W36      -0.349400
      3 C8          -5.4810    16.6850   -32.8160 c3         1 W36       0.186800
      4 O1          -6.0480    13.9830   -35.6540 o          1 W36      -0.539000
      5 C1          -0.9050    12.5460   -34.8190 ca         1 W36      -0.133300
      6 C5          -1.7120    14.7000   -35.6500 ca         1 W36      -0.193000
      7 C6          -0.7130    13.7700   -35.4500 ca         1 W36       0.194000
      8 C4          -3.0010    14.4170   -35.1910 ca         1 W36       0.345000
      9 C3          -3.2420    13.1990   -34.5540 ca         1 W36      -0.167000
     10 C2          -2.2020    12.2960   -34.3810 ca         1 W36      -0.050000
     11 S           -5.6090    15.2770   -35.1980 s6         1 W36       1.264100
     12 O           -6.1410    16.4610   -35.8260 o          1 W36      -0.539000
     13 N           -3.9860    15.3980   -35.3920 nu         1 W36      -0.952100
     14 C            0.2260    11.5750   -34.6360 c3         1 W36      -0.036800
     15 H1          -5.2480    17.4090   -30.9220 hn         1 W36       0.400000
     16 H2          -6.6720    16.6620   -31.1510 hn         1 W36       0.400000
     17 H4          -6.9720    15.1730   -33.3330 h1         1 W36       0.110200
     18 H5          -5.3580    14.5290   -32.9970 h1         1 W36       0.110200
     19 H6          -4.4190    16.8520   -33.0050 h1         1 W36       0.040200
     20 H7          -6.0320    17.5040   -33.2890 h1         1 W36       0.040200
     21 H8          -1.4900    15.6280   -36.1600 ha         1 W36       0.134000
     22 H9          -4.2260    12.9350   -34.2010 ha         1 W36       0.128000
     23 H10         -2.4070    11.3560   -33.8820 ha         1 W36       0.121000
     24 H11         -3.6850    16.3140   -35.6950 hn         1 W36       0.516000
     25 H12          1.0840    12.0570   -34.1620 hc         1 W36       0.048700
     26 H13         -0.0890    10.7400   -34.0120 hc         1 W36       0.048700
     27 H14          0.5710    11.1790   -35.5940 hc         1 W36       0.048700
     28 F            0.5330    14.0690   -35.9050 f          1 W36      -0.182000
@<TRIPOS>BOND
     1     1     3 1   
     2     1    15 1   
     3     1    16 1   
     4     2     3 1   
     5     2    11 1   
     6     2    17 1   
     7     2    18 1   
     8     3    19 1   
     9     3    20 1   
    10     4    11 2   
    11     5     7 ar  
    12     5    10 ar  
    13     5    14 1   
    14     6     7 ar  
    15     6     8 ar  
    16     6    21 1   
    17     7    28 1   
    18     8     9 ar  
    19     8    13 1   
    20     9    10 ar  
    21     9    22 1   
    22    10    23 1   
    23    11    12 2   
    24    11    13 1   
    25    13    24 1   
    26    14    25 1   
    27    14    26 1   
    28    14    27 1   
@<TRIPOS>SUBSTRUCTURE
     1 W36         1 TEMP              0 ****  ****    0 ROOT
