@<TRIPOS>MOLECULE
W38
   57    62     1     0     0
SMALL
abcg2


@<TRIPOS>ATOM
      1 C4           5.3570    13.6600    30.3050 c2         1 W38      -0.018000
      2 C6           7.0070    12.5600    31.1340 c2         1 W38      -0.064000
      3 C11          6.6910    17.5970    29.3120 DU         1 W38      -0.008000
      4 C7           7.4760    13.8180    30.8710 c2         1 W38      -0.154000
      5 C10          5.6030    17.0510    30.2600 cx         1 W38      -0.170667
      6 C12          7.7230    16.7510    30.1250 cx         1 W38      -0.170667
      7 C13          6.4730    16.3520    28.4260 cx         1 W38      -0.170667
      8 C3           3.2940    12.8920    29.1300 c3         1 W38      -0.202500
      9 C1           3.1470    14.5400    31.0260 c3         1 W38      -0.202500
     10 C2           3.9870    14.0490    29.8430 c3         1 W38      -0.028000
     11 N5           5.6880    12.4840    30.7780 n2         1 W38      -0.149000
     12 N8           6.4180    14.5100    30.3450 na         1 W38      -0.095000
     13 N14          6.7950    18.9280    28.8540 n3         1 W38      -0.200000
     14 C15          6.8620    19.8940    29.9380 c6         1 W38      -0.104000
     15 C16          6.9080    21.3000    29.3710 c6         1 W38      -0.022000
     16 O17          7.9930    21.4690    28.4870 os         1 W38      -0.256000
     17 C18          7.9230    20.5420    27.4270 c6         1 W38      -0.022000
     18 C19          7.9060    19.1130    27.9340 c6         1 W38      -0.104000
     19 C20          7.7230    11.4190    31.6960 c2         1 W38      -0.090000
     20 C21          7.0720    10.2200    31.9960 c2         1 W38      -0.021000
     21 C22          7.7900     9.1750    32.5230 c2         1 W38      -0.092000
     22 O23          7.1840     7.9520    32.7890 os         1 W38      -0.249000
     23 C24          6.5090     7.8260    33.9400 c3         1 W38       0.560000
     24 F25          7.2430     8.1520    35.0050 f          1 W38      -0.161333
     25 F26          6.1410     6.5610    34.0540 f          1 W38      -0.161333
     26 F27          5.4130     8.5850    33.9800 f          1 W38      -0.161333
     27 C28          9.1740     9.2960    32.7390 c2         1 W38       0.170000
     28 N29          9.9420     8.2660    33.1730 nv         1 W38      -0.339000
     29 N30          9.7840    10.4440    32.4540 n2         1 W38      -0.223000
     30 C31          9.0880    11.4530    31.9590 c2         1 W38       0.003000
     31 H1           8.4430    14.2740    31.0040 h4         1 W38       0.176000
     32 H2           5.6410    17.3780    31.3000 hc         1 W38       0.108500
     33 H3           4.5830    17.0440    29.8730 hc         1 W38       0.108500
     34 H4           8.6420    16.4650    29.6110 hc         1 W38       0.108500
     35 H5           7.9090    17.0490    31.1570 hc         1 W38       0.108500
     36 H6           5.5200    16.2920    27.8980 hc         1 W38       0.108500
     37 H7           7.3060    16.0380    27.7960 hc         1 W38       0.108500
     38 H8           2.3060    13.2040    28.7910 hc         1 W38       0.080833
     39 H9           3.8600    12.5630    28.2580 hc         1 W38       0.080833
     40 H10          3.1690    12.0370    29.7940 hc         1 W38       0.080833
     41 H11          3.6180    15.3770    31.5420 hc         1 W38       0.080833
     42 H12          2.1650    14.8690    30.6840 hc         1 W38       0.080833
     43 H13          3.0010    13.7390    31.7520 hc         1 W38       0.080833
     44 H14          4.0840    14.8710    29.1290 hc         1 W38       0.087000
     45 H16          5.9760    19.7970    30.5700 h1         1 W38       0.084500
     46 H17          7.7420    19.7290    30.5820 h1         1 W38       0.084500
     47 H18          7.0290    22.0240    30.1790 h1         1 W38       0.092750
     48 H19          5.9580    21.5200    28.8620 h1         1 W38       0.092750
     49 H20          8.7960    20.7030    26.7930 h1         1 W38       0.092750
     50 H21          7.0250    20.7210    26.8180 h1         1 W38       0.092750
     51 H22          7.7920    18.4380    27.0830 h1         1 W38       0.084500
     52 H23          8.8730    18.8780    28.4100 h1         1 W38       0.084500
     53 H24          6.0120    10.1130    31.8000 ha         1 W38       0.175000
     54 H25         10.8670     8.5000    33.4940 hn         1 W38       0.227000
     55 H26          9.5240     7.4670    33.6150 hn         1 W38       0.227000
     56 H27          9.6600    12.3510    31.7490 h4         1 W38       0.154000
     57 C9           6.5020    15.8580    29.8850 DU         1 W38       0.014000
@<TRIPOS>BOND
     1     1    10 1   
     2     1    11 1   
     3     1    12 1   
     4     2     4 1   
     5     2    11 1   
     6     2    19 1   
     7     3     5 1   
     8     3     6 1   
     9     3     7 1   
    10     3    13 1   
    11     3    57 1   
    12     4    12 1   
    13     4    31 1   
    14     5    32 1   
    15     5    33 1   
    16     5    57 1   
    17     6    34 1   
    18     6    35 1   
    19     6    57 1   
    20     7    36 1   
    21     7    37 1   
    22     7    57 1   
    23     8    10 1   
    24     8    38 1   
    25     8    39 1   
    26     8    40 1   
    27     9    10 1   
    28     9    41 1   
    29     9    42 1   
    30     9    43 1   
    31    10    44 1   
    32    12    57 1   
    33    13    14 1   
    34    13    18 1   
    35    14    15 1   
    36    14    45 1   
    37    14    46 1   
    38    15    16 1   
    39    15    47 1   
    40    15    48 1   
    41    16    17 1   
    42    17    18 1   
    43    17    49 1   
    44    17    50 1   
    45    18    51 1   
    46    18    52 1   
    47    19    20 1   
    48    19    30 1   
    49    20    21 1   
    50    20    53 1   
    51    21    22 1   
    52    21    27 1   
    53    22    23 1   
    54    23    24 1   
    55    23    25 1   
    56    23    26 1   
    57    27    28 1   
    58    27    29 1   
    59    28    54 1   
    60    28    55 1   
    61    29    30 1   
    62    30    56 1   
@<TRIPOS>SUBSTRUCTURE
     1 W38         1 TEMP              0 ****  ****    0 ROOT
