@<TRIPOS>MOLECULE
W39
   57    60     1     0     0
SMALL
abcg2


@<TRIPOS>ATOM
      1 C1          29.0200    -2.4930    10.6480 ca         1 W39      -0.182000
      2 C2          28.6200    -3.8200    10.7640 ca         1 W39      -0.095000
      3 C3          29.3810    -4.7060    11.5080 ca         1 W39       0.166000
      4 O1          32.5660    -3.8010    14.2050 o          1 W39      -0.589100
      5 C11         32.4320    -9.7010    13.5850 cp         1 W39       0.376000
      6 C12         32.3980    -9.9370    12.2040 ca         1 W39      -0.221300
      7 C13         32.9330    -8.9690    11.1870 c3         1 W39       0.368300
      8 C14         31.8790   -11.1460    11.7590 ca         1 W39      -0.021000
      9 C15         31.4450   -12.0830    12.6780 ca         1 W39      -0.163000
     10 C16         31.5710   -11.7820    14.0230 ca         1 W39       0.371900
     11 C17         28.3220    -6.7030    10.6200 c6         1 W39       0.189800
     12 C18         28.3570    -8.2130    10.7910 c6         1 W39      -0.071400
     13 C19         27.8280    -8.6770    12.1520 c6         1 W39       0.172200
     14 C20         28.5610    -7.8880    13.2410 c6         1 W39      -0.071400
     15 C21         28.5200    -6.3870    13.0090 c6         1 W39       0.189800
     16 C22         26.3130    -8.4640    12.2480 c3         1 W39      -0.125100
     17 C10         33.7240    -6.1710    15.4180 ca         1 W39       0.644900
     18 C4          30.5660    -4.1960    12.0890 ca         1 W39       0.486900
     19 C5          30.1780    -2.1010    11.2890 ca         1 W39       0.354900
     20 C7          32.8370    -6.1570    14.3050 ca         1 W39       0.150500
     21 C8          32.8950    -8.4440    14.2040 cp         1 W39       0.146000
     22 C9          33.7370    -8.4540    15.3200 ca         1 W39       0.426900
     23 F1          34.0420    -8.3500    11.6000 f          1 W39      -0.110000
     24 F2          33.2510    -9.5940    10.0460 f          1 W39      -0.110000
     25 F3          32.0420    -8.0240    10.8590 f          1 W39      -0.110000
     26 N1          30.9430    -2.9390    11.9850 nb         1 W39      -0.673000
     27 N2          31.3690    -5.1090    12.7600 ns         1 W39      -0.302900
     28 N3          32.4650    -7.2870    13.7380 nb         1 W39      -0.595000
     29 N4          34.1470    -7.3510    15.9000 nb         1 W39      -0.753000
     30 N6          32.0450   -10.6250    14.4600 nb         1 W39      -0.684000
     31 N7          29.0710    -6.0640    11.6910 nh         1 W39      -0.776400
     32 H1          28.4390    -1.7830    10.0760 ha         1 W39       0.123000
     33 H2          27.7110    -4.1520    10.2790 ha         1 W39       0.117000
     34 H14         31.8210   -11.3730    10.7030 ha         1 W39       0.136000
     35 H15         31.0350   -13.0310    12.3580 ha         1 W39       0.130000
     36 H16         31.2740   -12.4980    14.7800 h4         1 W39       0.023100
     37 H172        27.2810    -6.3510    10.5820 h1         1 W39       0.036950
     38 H171        28.7800    -6.4340     9.6660 h1         1 W39       0.036950
     39 H182        27.7790    -8.6760     9.9850 hc         1 W39       0.057700
     40 H181        29.3890    -8.5560    10.6840 hc         1 W39       0.057700
     41 H202        28.1330    -8.1120    14.2220 hc         1 W39       0.057700
     42 H201        29.6050    -8.2140    13.2630 hc         1 W39       0.057700
     43 H211        29.1040    -5.8860    13.7820 h1         1 W39       0.036950
     44 H212        27.4920    -6.0050    13.1000 h1         1 W39       0.036950
     45 H221        25.9420    -8.8100    13.2160 hc         1 W39       0.036367
     46 H223        26.0070    -7.4230    12.1370 hc         1 W39       0.036367
     47 H222        25.8020    -9.0370    11.4700 hc         1 W39       0.036367
     48 H5          30.5230    -1.0750    11.2290 h4         1 W39       0.023100
     49 H9          34.0910    -9.3900    15.7360 h4         1 W39       0.040100
     50 H3          31.1750    -6.0810    12.5440 hn         1 W39       0.206000
     51 HN51        34.7820    -5.1740    16.8250 hn         1 W39       0.521000
     52 HN52        33.8770    -4.1630    15.7300 hn         1 W39       0.521000
     53 H4          27.8120   -10.4230    13.1960 hn         1 W39       0.390000
     54 HN81        27.6930   -10.6310    11.6020 hn         1 W39       0.390000
     55 N8          28.1760   -10.0880    12.3100 n8         1 W39      -0.991200
     56 C6          32.2610    -4.8940    13.7570 c          1 W39       0.541600
     57 N5          34.1750    -5.0760    16.0290 nv         1 W39      -1.051900
@<TRIPOS>BOND
     1     1     2 ar  
     2     1    19 ar  
     3     1    32 1   
     4     2     3 ar  
     5     2    33 1   
     6     3    18 ar  
     7     3    31 1   
     8     4    56 2   
     9     5     6 ar  
    10     5    21 1   
    11     5    30 ar  
    12     6     7 1   
    13     6     8 ar  
    14     7    23 1   
    15     7    24 1   
    16     7    25 1   
    17     8     9 ar  
    18     8    34 1   
    19     9    10 ar  
    20     9    35 1   
    21    10    30 ar  
    22    10    36 1   
    23    11    12 1   
    24    11    31 1   
    25    11    37 1   
    26    11    38 1   
    27    12    13 1   
    28    12    39 1   
    29    12    40 1   
    30    13    14 1   
    31    13    16 1   
    32    13    55 1   
    33    14    15 1   
    34    14    41 1   
    35    14    42 1   
    36    15    31 1   
    37    15    43 1   
    38    15    44 1   
    39    16    45 1   
    40    16    46 1   
    41    16    47 1   
    42    17    20 ar  
    43    17    29 ar  
    44    17    57 1   
    45    18    26 ar  
    46    18    27 1   
    47    19    26 ar  
    48    19    48 1   
    49    20    28 ar  
    50    20    56 1   
    51    21    22 ar  
    52    21    28 ar  
    53    22    29 ar  
    54    22    49 1   
    55    27    50 1   
    56    27    56 1   
    57    51    57 1   
    58    52    57 1   
    59    53    55 1   
    60    54    55 1   
@<TRIPOS>SUBSTRUCTURE
     1 W39         1 TEMP              0 ****  ****    0 ROOT
