@<TRIPOS>MOLECULE
W39
   57    60     1     0     0
SMALL
No Charge or Current Charge


@<TRIPOS>ATOM
      1 C1          29.0430    -2.2730    10.6960 ca         1 W39      -0.182000
      2 C2          28.5510    -3.5870    10.7930 ca         1 W39      -0.095000
      3 C3          29.2890    -4.5410    11.5230 ca         1 W39       0.166000
      4 O1          32.4750    -3.7370    14.3710 o          1 W39      -0.589100
      5 C11         32.4580    -9.7810    13.7560 cp         1 W39       0.376000
      6 C12         32.2920   -10.0850    12.3660 ca         1 W39      -0.221300
      7 C13         32.7410    -9.1320    11.2480 c3         1 W39       0.368300
      8 C14         31.7160   -11.3280    12.0180 ca         1 W39      -0.021000
      9 C15         31.3570   -12.2210    13.0350 ca         1 W39      -0.163000
     10 C16         31.5940   -11.8680    14.3660 ca         1 W39       0.371900
     11 C17         28.0850    -6.5250    10.4900 c6         1 W39       0.189800
     12 C18         28.2690    -8.0630    10.4820 c6         1 W39      -0.071400
     13 C19         27.8900    -8.7110    11.8420 c6         1 W39       0.172200
     14 C20         28.6880    -8.0020    12.9710 c6         1 W39      -0.071400
     15 C21         28.4790    -6.4670    12.9540 c6         1 W39       0.189800
     16 C22         26.3550    -8.6570    12.0990 c3         1 W39      -0.125100
     17 C10         33.8470    -6.1380    15.3660 ca         1 W39       0.644900
     18 C4          30.5000    -4.0880    12.1370 ca         1 W39       0.486900
     19 C5          30.2570    -1.9380    11.3170 ca         1 W39       0.354900
     20 C7          32.8460    -6.1290    14.3420 ca         1 W39       0.150500
     21 C8          32.9540    -8.4590    14.2820 cp         1 W39       0.146000
     22 C9          33.9260    -8.4150    15.3290 ca         1 W39       0.426900
     23 F1          33.9360    -8.5570    11.5130 f          1 W39      -0.110000
     24 F2          32.8910    -9.7630    10.0600 f          1 W39      -0.110000
     25 F3          31.8520    -8.1360    11.0380 f          1 W39      -0.110000
     26 N1          30.9880    -2.8280    12.0220 nb         1 W39      -0.673000
     27 N2          31.3300    -4.9920    12.8230 ns         1 W39      -0.302900
     28 N3          32.3990    -7.3090    13.8010 nb         1 W39      -0.595000
     29 N4          34.3870    -7.2510    15.8720 nb         1 W39      -0.753000
     30 N6          32.1400   -10.6850    14.7160 nb         1 W39      -0.684000
     31 N7          28.8220    -5.8930    11.6210 nh         1 W39      -0.776400
     32 H1          28.4940    -1.5170    10.1410 ha         1 W39       0.123000
     33 H2          27.6130    -3.8520    10.3140 ha         1 W39       0.117000
     34 H14         31.5460   -11.6080    10.9790 ha         1 W39       0.136000
     35 H15         30.9140   -13.1850    12.7990 ha         1 W39       0.130000
     36 H16         31.3430   -12.5490    15.1780 h4         1 W39       0.023100
     37 H172        27.0150    -6.2800    10.5530 h1         1 W39       0.036950
     38 H171        28.4540    -6.1290     9.5320 h1         1 W39       0.036950
     39 H182        27.6690    -8.4980     9.6720 hc         1 W39       0.057700
     40 H181        29.3160    -8.2900    10.2420 hc         1 W39       0.057700
     41 H202        28.3980    -8.3980    13.9540 hc         1 W39       0.057700
     42 H201        29.7600    -8.2110    12.8590 hc         1 W39       0.057700
     43 H211        29.1000    -6.0210    13.7440 h1         1 W39       0.036950
     44 H212        27.4350    -6.2310    13.2040 h1         1 W39       0.036950
     45 H221        26.0920    -9.1200    13.0580 hc         1 W39       0.036367
     46 H223        25.9740    -7.6300    12.1230 hc         1 W39       0.036367
     47 H222        25.7990    -9.1850    11.3140 hc         1 W39       0.036367
     48 H5          30.6580    -0.9280    11.2450 h4         1 W39       0.023100
     49 H9          34.3500    -9.3350    15.7290 h4         1 W39       0.040100
     50 H3          31.1810    -5.9550    12.5510 hn         1 W39       0.206000
     51 HN51        34.8420    -5.2850    16.8740 hn         1 W39       0.521000
     52 HN52        33.9100    -4.1910    15.9050 hn         1 W39       0.521000
     53 H4          29.0280   -10.2920    12.4660 hn         1 W39       0.390000
     54 HN81        27.4830   -10.6800    12.2050 hn         1 W39       0.390000
     55 N8          28.2570   -10.1370    11.8100 n8         1 W39      -0.991200
     56 C6          32.2300    -4.8270    13.8580 c          1 W39       0.541600
     57 N5          34.3990    -5.0790    15.9870 nv         1 W39      -1.051900
@<TRIPOS>BOND
     1     1     2 ar  
     2     1    19 ar  
     3     1    32 1   
     4     2     3 ar  
     5     2    33 1   
     6     3    18 ar  
     7     3    31 1   
     8     4    56 2   
     9     5     6 ar  
    10     5    21 1   
    11     5    30 ar  
    12     6     7 1   
    13     6     8 ar  
    14     7    23 1   
    15     7    24 1   
    16     7    25 1   
    17     8     9 ar  
    18     8    34 1   
    19     9    10 ar  
    20     9    35 1   
    21    10    30 ar  
    22    10    36 1   
    23    11    12 1   
    24    11    31 1   
    25    11    37 1   
    26    11    38 1   
    27    12    13 1   
    28    12    39 1   
    29    12    40 1   
    30    13    14 1   
    31    13    16 1   
    32    13    55 1   
    33    14    15 1   
    34    14    41 1   
    35    14    42 1   
    36    15    31 1   
    37    15    43 1   
    38    15    44 1   
    39    16    45 1   
    40    16    46 1   
    41    16    47 1   
    42    17    20 ar  
    43    17    29 ar  
    44    17    57 1   
    45    18    26 ar  
    46    18    27 1   
    47    19    26 ar  
    48    19    48 1   
    49    20    28 ar  
    50    20    56 1   
    51    21    22 ar  
    52    21    28 ar  
    53    22    29 ar  
    54    22    49 1   
    55    27    50 1   
    56    27    56 1   
    57    51    57 1   
    58    52    57 1   
    59    53    55 1   
    60    54    55 1   
@<TRIPOS>SUBSTRUCTURE
     1 W39         1 TEMP              0 ****  ****    0 ROOT
