@<TRIPOS>MOLECULE
W3A
   14    14     1     0     0
SMALL
bcc


@<TRIPOS>ATOM
      1 N1          -1.5890    11.8740    -4.4860 nc         1 W3A      -0.519800
      2 C4          -2.2590    10.8940    -5.0630 cd         1 W3A       0.309200
      3 O1           0.9330    10.9320    -2.5630 o          1 W3A      -0.811300
      4 C3           1.3220    12.0340    -2.9760 c          1 W3A       0.930600
      5 O            2.1640    12.8030    -2.4800 o          1 W3A      -0.811300
      6 C2           0.7100    12.5600    -4.3010 c3         1 W3A      -0.121700
      7 N           -0.3220    11.7150    -4.8490 na         1 W3A       0.191400
      8 C1          -0.1410    10.6440    -5.6340 cc         1 W3A      -0.097300
      9 C           -1.3880    10.0850    -5.8040 cd         1 W3A      -0.250200
     10 BR          -1.8120     8.5830    -6.8180 br         1 W3A      -0.115100
     11 H1          -3.3270    10.7980    -4.9420 h4         1 W3A       0.024100
     12 H3           1.4990    12.6610    -5.0470 h1         1 W3A       0.048200
     13 H4           0.2830    13.5510    -4.1510 h1         1 W3A       0.048200
     14 H5           0.8250    10.3600    -6.0170 h4         1 W3A       0.174000
@<TRIPOS>BOND
     1     1     2 2   
     2     1     7 1   
     3     2     9 1   
     4     2    11 1   
     5     3     4 1   
     6     4     5 1   
     7     4     6 1   
     8     6     7 1   
     9     6    12 1   
    10     6    13 1   
    11     7     8 1   
    12     8     9 2   
    13     8    14 1   
    14     9    10 1   
@<TRIPOS>SUBSTRUCTURE
     1 W3A         1 TEMP              0 ****  ****    0 ROOT
