@<TRIPOS>MOLECULE
W3A
   14    14     1     0     0
SMALL
No Charge or Current Charge


@<TRIPOS>ATOM
      1 N1          -1.6330    12.2110    -4.8200 nc         1 W3A      -0.519800
      2 C4          -2.3230    11.1950    -5.3020 cd         1 W3A       0.243900
      3 O1           2.4850    11.2490    -3.4300 o          1 W3A      -0.706000
      4 C3           1.5140    11.9470    -3.1780 c          1 W3A       0.720000
      5 O            1.1230    12.1810    -2.0430 o          1 W3A      -0.706000
      6 C2           0.7580    12.5770    -4.3480 c3         1 W3A      -0.092400
      7 N           -0.3390    11.7240    -4.8080 na         1 W3A       0.212800
      8 C1          -0.2260    10.4230    -5.2910 cc         1 W3A      -0.130000
      9 C           -1.5090    10.0830    -5.6040 cd         1 W3A      -0.184900
     10 Br          -2.0940     8.4380    -6.3140 br         1 W3A      -0.115100
     11 H1          -3.3940    11.2900    -5.4230 h4         1 W3A       0.024100
     12 H3           1.4570    12.7370    -5.1770 h1         1 W3A       0.048200
     13 H4           0.3660    13.5510    -4.0310 h1         1 W3A       0.048200
     14 H5           0.7120     9.8870    -5.3630 h4         1 W3A       0.156000
@<TRIPOS>BOND
     1     1     2 2   
     2     1     7 1   
     3     2     9 1   
     4     2    11 1   
     5     3     4 1   
     6     4     5 1   
     7     4     6 1   
     8     6     7 1   
     9     6    12 1   
    10     6    13 1   
    11     7     8 1   
    12     8     9 2   
    13     8    14 1   
    14     9    10 1   
@<TRIPOS>SUBSTRUCTURE
     1 W3A         1 TEMP              0 ****  ****    0 ROOT
