@<TRIPOS>MOLECULE
W3B
   27    27     1     0     0
SMALL
abcg2


@<TRIPOS>ATOM
      1 C7          -1.7240    12.6100   -34.6660 ca         1 W3B       0.170000
      2 C8          -2.8690    12.9270   -33.9570 ca         1 W3B      -0.173000
      3 C9           1.4780    13.7040   -35.4410 c3         1 W3B       0.384300
      4 O1          -5.7680    16.2440   -34.5780 o          1 W3B      -0.415000
      5 C1          -5.4560    16.6620   -33.4890 c          1 W3B       0.559100
      6 C5          -1.1340    14.9290   -34.7890 ca         1 W3B      -0.084000
      7 C6          -0.8440    13.6040   -35.0830 ca         1 W3B       0.053100
      8 C4          -2.2710    15.2610   -34.0660 ca         1 W3B      -0.170000
      9 C3          -3.1630    14.2620   -33.6380 ca         1 W3B       0.352000
     10 C2          -4.6940    15.8310   -32.4560 c3         1 W3B       0.132800
     11 F1           2.4030    12.7620   -35.7630 f          1 W3B      -0.118500
     12 F            1.8280    14.8190   -36.1670 f          1 W3B      -0.118500
     13 O2           0.2660    13.2410   -35.8440 os         1 W3B      -0.371100
     14 CL          -1.3830    10.9400   -35.0290 cl         1 W3B      -0.175000
     15 N           -4.3040    14.5390   -32.9290 nu         1 W3B      -0.971200
     16 O           -5.8240    17.9040   -33.1420 os         1 W3B      -0.448100
     17 C           -5.5170    18.4470   -31.8370 c3         1 W3B       0.160900
     18 H1          -3.5380    12.1370   -33.6440 ha         1 W3B       0.132000
     19 H2           1.5300    13.9470   -34.3790 h3         1 W3B       0.062700
     20 H3          -0.4610    15.7080   -35.1270 ha         1 W3B       0.133000
     21 H4          -2.4850    16.3040   -33.8810 ha         1 W3B       0.120000
     22 H5          -3.8230    16.3950   -32.1200 h1         1 W3B       0.069700
     23 H6          -5.3340    15.7160   -31.5780 h1         1 W3B       0.069700
     24 H7          -4.9810    13.7990   -32.8450 hn         1 W3B       0.500000
     25 H8          -5.8820    19.4690   -31.8580 h1         1 W3B       0.047367
     26 H9          -6.0330    17.8820   -31.0600 h1         1 W3B       0.047367
     27 H10         -4.4440    18.4470   -31.6560 h1         1 W3B       0.047367
@<TRIPOS>BOND
     1     1     2 ar  
     2     1     7 ar  
     3     1    14 1   
     4     2     9 ar  
     5     2    18 1   
     6     3    11 1   
     7     3    12 1   
     8     3    13 1   
     9     3    19 1   
    10     4     5 2   
    11     5    10 1   
    12     5    16 1   
    13     6     7 ar  
    14     6     8 ar  
    15     6    20 1   
    16     7    13 1   
    17     8     9 ar  
    18     8    21 1   
    19     9    15 1   
    20    10    15 1   
    21    10    22 1   
    22    10    23 1   
    23    15    24 1   
    24    16    17 1   
    25    17    25 1   
    26    17    26 1   
    27    17    27 1   
@<TRIPOS>SUBSTRUCTURE
     1 W3B         1 TEMP              0 ****  ****    0 ROOT
