@<TRIPOS>MOLECULE
W3B
   27    27     1     0     0
SMALL
No Charge or Current Charge


@<TRIPOS>ATOM
      1 C7          -1.8650    12.5300   -34.7220 ca         1 W3B       0.170000
      2 C8          -3.0120    12.8860   -33.9950 ca         1 W3B      -0.173000
      3 C9           1.4410    13.9170   -35.8270 c3         1 W3B       0.384300
      4 O1          -5.0460    16.2770   -34.7990 o          1 W3B      -0.415000
      5 C1          -5.1280    16.7100   -33.6570 c          1 W3B       0.559100
      6 C5          -0.8640    14.6880   -34.2040 ca         1 W3B      -0.084000
      7 C6          -0.7800    13.4270   -34.8380 ca         1 W3B       0.053100
      8 C4          -2.0180    15.0350   -33.4780 ca         1 W3B      -0.170000
      9 C3          -3.0960    14.1380   -33.3760 ca         1 W3B       0.352000
     10 C2          -4.7630    15.8540   -32.3820 c3         1 W3B       0.132800
     11 F1           2.4340    13.2430   -36.4500 f          1 W3B      -0.118500
     12 F            1.0720    14.9130   -36.6650 f          1 W3B      -0.118500
     13 O2           0.3350    13.0350   -35.5610 os         1 W3B      -0.371100
     14 Cl          -1.8040    10.9420   -35.4890 cl         1 W3B      -0.175000
     15 N           -4.2490    14.4680   -32.6590 nu         1 W3B      -0.971200
     16 O           -5.5600    18.0030   -33.4230 os         1 W3B      -0.448100
     17 C           -5.6710    18.5270   -32.0830 c3         1 W3B       0.160900
     18 H1          -3.8360    12.1830   -33.9190 ha         1 W3B       0.132000
     19 H2           1.8350    14.3480   -34.9010 h3         1 W3B       0.062700
     20 H3          -0.0490    15.4060   -34.2580 ha         1 W3B       0.133000
     21 H4          -2.0640    16.0050   -32.9930 ha         1 W3B       0.120000
     22 H5          -4.0170    16.4140   -31.8040 h1         1 W3B       0.069700
     23 H6          -5.6700    15.7900   -31.7660 h1         1 W3B       0.069700
     24 H7          -4.9390    13.7120   -32.6000 hn         1 W3B       0.500000
     25 H8          -6.0380    19.5610   -32.1130 h1         1 W3B       0.047367
     26 H9          -6.3790    17.9420   -31.4830 h1         1 W3B       0.047367
     27 H10         -4.6970    18.5380   -31.5770 h1         1 W3B       0.047367
@<TRIPOS>BOND
     1     1     2 ar  
     2     1     7 ar  
     3     1    14 1   
     4     2     9 ar  
     5     2    18 1   
     6     3    11 1   
     7     3    12 1   
     8     3    13 1   
     9     3    19 1   
    10     4     5 2   
    11     5    10 1   
    12     5    16 1   
    13     6     7 ar  
    14     6     8 ar  
    15     6    20 1   
    16     7    13 1   
    17     8     9 ar  
    18     8    21 1   
    19     9    15 1   
    20    10    15 1   
    21    10    22 1   
    22    10    23 1   
    23    15    24 1   
    24    16    17 1   
    25    17    25 1   
    26    17    26 1   
    27    17    27 1   
@<TRIPOS>SUBSTRUCTURE
     1 W3B         1 TEMP              0 ****  ****    0 ROOT
