@<TRIPOS>MOLECULE
W3C
   42    46     1     0     0
SMALL
abcg2


@<TRIPOS>ATOM
      1 C4           5.4300    11.2040    32.5650 c2         1 W3C      -0.067000
      2 C3           6.7940    11.1100    32.8400 c2         1 W3C      -0.017000
      3 C2           6.6490     8.9410    33.6040 c2         1 W3C       0.121000
      4 C5           4.8450    12.3950    31.9570 c2         1 W3C      -0.067000
      5 C6           3.3970    13.5940    30.8900 c2         1 W3C      -0.047000
      6 C1           5.2750     8.9360    33.3270 c2         1 W3C      -0.033000
      7 F6           5.5880    18.5940    29.6510 f          1 W3C      -0.122000
      8 C11          5.2100    17.3350    30.0930 DU         1 W3C       0.081000
      9 C10          3.9190    17.0070    30.7820 cx         1 W3C      -0.172667
     10 C12          6.0260    16.5440    31.1000 cx         1 W3C      -0.172667
     11 C13          5.1180    16.1160    29.1610 cx         1 W3C      -0.172667
     12 N3           4.4490    14.4240    31.1860 na         1 W3C      -0.090000
     13 C7           2.1240    14.0530    30.2440 c3         1 W3C       0.076000
     14 C8           1.0930    14.5240    31.2800 c3         1 W3C       0.403000
     15 F5           0.6320    13.5190    32.0450 f          1 W3C      -0.155667
     16 F4           1.6110    15.4530    32.1060 f          1 W3C      -0.155667
     17 F3           0.0250    15.0810    30.6710 f          1 W3C      -0.155667
     18 O1           1.6140    13.0180    29.4390 oh         1 W3C      -0.271000
     19 N2           3.5870    12.3890    31.3800 n2         1 W3C      -0.086000
     20 C14          5.4000    13.6420    31.8090 c2         1 W3C      -0.127000
     21 N1           7.3770    10.0310    33.3600 n2         1 W3C      -0.201000
     22 N            7.2750     7.8330    34.1720 nv         1 W3C      -0.301000
     23 C15          4.6600    10.0520    32.8070 c2         1 W3C      -0.045000
     24 O            4.5850     7.7330    33.5200 os         1 W3C      -0.240000
     25 C            3.6070     7.6650    34.4470 c3         1 W3C       0.553000
     26 F            3.3450     6.3780    34.6670 f          1 W3C      -0.157333
     27 F1           2.4600     8.2520    34.0410 f          1 W3C      -0.157333
     28 F2           3.9480     8.2410    35.6100 f          1 W3C      -0.157333
     29 H3           7.4330    11.9730    32.6960 h4         1 W3C       0.156000
     30 H6           3.6810    17.3060    31.7980 hc         1 W3C       0.123333
     31 H5           3.0340    16.9740    30.1490 hc         1 W3C       0.123333
     32 H7           6.9870    16.1710    30.7610 hc         1 W3C       0.123333
     33 H8           5.9490    16.8980    32.1230 hc         1 W3C       0.123333
     34 H9           4.2880    16.0750    28.4490 hc         1 W3C       0.123333
     35 H10          6.0710    15.7450    28.7930 hc         1 W3C       0.123333
     36 H            2.3600    14.9310    29.6350 h1         1 W3C       0.096000
     37 H4           0.7640    13.2860    29.0690 ho         1 W3C       0.223000
     38 H11          6.3550    14.0570    32.0740 h4         1 W3C       0.181000
     39 H1           8.2720     7.9820    34.2460 hn         1 W3C       0.199000
     40 H2           6.8720     7.5110    35.0430 hn         1 W3C       0.199000
     41 H12          3.5890    10.0430    32.6640 ha         1 W3C       0.178000
     42 C9           4.7680    15.7000    30.6070 DU         1 W3C      -0.032000
@<TRIPOS>BOND
     1     1     2 1   
     2     1     4 1   
     3     1    23 1   
     4     2    21 1   
     5     2    29 1   
     6     3     6 1   
     7     3    21 1   
     8     3    22 1   
     9     4    19 1   
    10     4    20 1   
    11     5    12 1   
    12     5    13 1   
    13     5    19 1   
    14     6    23 1   
    15     6    24 1   
    16     7     8 1   
    17     8     9 1   
    18     8    10 1   
    19     8    11 1   
    20     8    42 1   
    21     9    30 1   
    22     9    31 1   
    23     9    42 1   
    24    10    32 1   
    25    10    33 1   
    26    10    42 1   
    27    11    34 1   
    28    11    35 1   
    29    11    42 1   
    30    12    20 1   
    31    12    42 1   
    32    13    14 1   
    33    13    18 1   
    34    13    36 1   
    35    14    15 1   
    36    14    16 1   
    37    14    17 1   
    38    18    37 1   
    39    20    38 1   
    40    22    39 1   
    41    22    40 1   
    42    23    41 1   
    43    24    25 1   
    44    25    26 1   
    45    25    27 1   
    46    25    28 1   
@<TRIPOS>SUBSTRUCTURE
     1 W3C         1 TEMP              0 ****  ****    0 ROOT
