@<TRIPOS>MOLECULE
W3D
   17    17     1     0     0
SMALL
abcg2


@<TRIPOS>ATOM
      1 C4          -2.1000    10.3000    -5.6180 cc         1 W3D      -0.345000
      2 C5          -1.3420     9.7100    -6.6510 cc         1 W3D       0.071700
      3 C6          -0.0780    10.1210    -6.9280 cd         1 W3D      -0.319200
      4 BR          -2.1200     8.3210    -7.6580 br         1 W3D      -0.130700
      5 C            0.5390    11.1800    -6.1700 c          1 W3D       0.558200
      6 O            1.6860    11.5750    -6.3530 o          1 W3D      -0.557000
      7 C3          -1.5110    11.3120    -4.9290 cd         1 W3D       0.014600
      8 N           -0.2700    11.7640    -5.2020 n          1 W3D      -0.200000
      9 C1           0.3110    12.7930    -4.3570 c3         1 W3D      -0.085000
     10 C2           1.1400    12.2160    -3.1800 c          1 W3D       0.724000
     11 O2           1.7600    13.0760    -2.5300 o          1 W3D      -0.709500
     12 O1           1.0800    10.9920    -2.9940 o          1 W3D      -0.709500
     13 H1          -3.1020     9.9830    -5.3720 ha         1 W3D       0.194000
     14 H2           0.5160     9.6720    -7.7110 ha         1 W3D       0.202000
     15 H3          -2.0330    11.8160    -4.1280 h4         1 W3D       0.197000
     16 H4           0.9250    13.4520    -4.9680 h1         1 W3D       0.047700
     17 H5          -0.5040    13.3980    -3.9570 h1         1 W3D       0.047700
@<TRIPOS>BOND
     1     1     2 1   
     2     1     7 2   
     3     1    13 1   
     4     2     3 2   
     5     2     4 1   
     6     3     5 1   
     7     3    14 1   
     8     5     6 2   
     9     5     8 1   
    10     7     8 1   
    11     7    15 1   
    12     8     9 1   
    13     9    10 1   
    14     9    16 1   
    15     9    17 1   
    16    10    11 1   
    17    10    12 1   
@<TRIPOS>SUBSTRUCTURE
     1 W3D         1 TEMP              0 ****  ****    0 ROOT
