@<TRIPOS>MOLECULE
W3D
   17    17     1     0     0
SMALL
No Charge or Current Charge


@<TRIPOS>ATOM
      1 C4          -2.1460    10.2910    -5.7370 cc         1 W3D      -0.345000
      2 C5          -1.3670     9.6680    -6.7570 cc         1 W3D       0.071700
      3 C6          -0.0730    10.0940    -6.9200 cd         1 W3D      -0.319200
      4 Br          -2.0890     8.3070    -7.8400 br         1 W3D      -0.130700
      5 C            0.5420    11.1540    -6.1010 c          1 W3D       0.558200
      6 O            1.7000    11.5100    -6.2770 o          1 W3D      -0.557000
      7 C3          -1.6130    11.2870    -4.9460 cd         1 W3D       0.014600
      8 N           -0.3010    11.7230    -5.1150 n          1 W3D      -0.200000
      9 C1           0.2450    12.7960    -4.2370 c3         1 W3D      -0.085000
     10 C2           1.2790    12.3110    -3.1990 c          1 W3D       0.724000
     11 O2           2.3200    12.9430    -3.0830 o          1 W3D      -0.709500
     12 O1           1.0070    11.3290    -2.5220 o          1 W3D      -0.709500
     13 H1          -3.1730     9.9640    -5.5920 ha         1 W3D       0.194000
     14 H2           0.5770     9.6670    -7.6720 ha         1 W3D       0.202000
     15 H3          -2.1540    11.7940    -4.1520 h4         1 W3D       0.197000
     16 H4           0.7160    13.5620    -4.8660 h1         1 W3D       0.047700
     17 H5          -0.5720    13.2800    -3.6880 h1         1 W3D       0.047700
@<TRIPOS>BOND
     1     1     2 1   
     2     1     7 2   
     3     1    13 1   
     4     2     3 2   
     5     2     4 1   
     6     3     5 1   
     7     3    14 1   
     8     5     6 2   
     9     5     8 1   
    10     7     8 1   
    11     7    15 1   
    12     8     9 1   
    13     9    10 1   
    14     9    16 1   
    15     9    17 1   
    16    10    11 1   
    17    10    12 1   
@<TRIPOS>SUBSTRUCTURE
     1 W3D         1 TEMP              0 ****  ****    0 ROOT
