@<TRIPOS>MOLECULE
W3F
   67    71     1     0     0
SMALL
No Charge or Current Charge


@<TRIPOS>ATOM
      1 C01         44.6800    -7.7910    -3.5240 ca         1 W3F      -0.152500
      2 C02         44.6700    -8.9650    -2.7570 ca         1 W3F       0.174000
      3 C03         43.5170    -9.3410    -2.0540 ca         1 W3F      -0.152500
      4 C04         42.3630    -8.5400    -2.1190 ca         1 W3F      -0.067500
      5 C05         42.3600    -7.3580    -2.8920 ca         1 W3F      -0.118300
      6 C06         43.5280    -6.9880    -3.5910 ca         1 W3F      -0.067500
      7 C07         41.1170    -6.4730    -2.9640 c3         1 W3F       0.164000
      8 C10         39.9460    -4.3300     0.0210 ca         1 W3F      -0.179600
      9 C12         39.8870    -7.2350    -3.5000 c3         1 W3F      -0.102100
     10 C13         39.1840    -3.1630     0.3150 ca         1 W3F      -0.027000
     11 C14         39.0030    -2.7260     1.6440 ca         1 W3F      -0.151000
     12 C15         39.5970    -3.4770     2.6570 ca         1 W3F       0.072600
     13 C16         40.3410    -4.6120     2.4030 ca         1 W3F      -0.099800
     14 C17         40.5340    -5.0660     1.0890 ca         1 W3F      -0.043000
     15 C19         40.2850    -4.2300     4.7430 c          1 W3F       0.586200
     16 C20         40.8120    -5.1460     3.6870 cc         1 W3F      -0.210400
     17 C22         41.5850    -6.2690     3.8480 cf         1 W3F       0.028800
     18 C23         42.1260    -6.9130     5.0550 cd         1 W3F      -0.220800
     19 C25         42.6490    -7.3320     7.2580 cd         1 W3F      -0.089300
     20 C26         43.2140    -8.3110     6.4720 cc         1 W3F      -0.062400
     21 C27         42.9030    -8.0440     5.1160 cc         1 W3F      -0.073300
     22 C28         43.3800    -8.9000     3.9650 c3         1 W3F      -0.027800
     23 C29         42.7410    -7.0320     8.7330 c3         1 W3F      -0.036800
     24 C31         44.1460   -10.0460     8.0730 c          1 W3F       0.610100
     25 C32         45.3010   -11.0880     8.0920 c3         1 W3F       0.066000
     26 C34         46.4840   -10.6010     8.8880 cc         1 W3F       0.069300
     27 C36         47.1380    -9.3980     8.8870 cd         1 W3F      -0.166000
     28 C37         48.1840    -9.4980     9.8270 cd         1 W3F      -0.192000
     29 C38         48.1300   -10.7570    10.3610 cc         1 W3F       0.133900
     30 F35         45.7780    -9.7360    -2.6930 f          1 W3F      -0.180000
     31 N08         40.8520    -5.8900    -1.6520 ns         1 W3F      -0.503900
     32 N18         39.5900    -3.2910     4.0330 ns         1 W3F      -0.389100
     33 N24         41.9660    -6.4900     6.3780 na         1 W3F      -0.063000
     34 N30         44.0270    -9.3760     6.8680 ns         1 W3F      -0.378100
     35 O11         39.6110    -4.1220    -2.3460 o          1 W3F      -0.598100
     36 O21         40.4110    -4.2600     5.9580 o          1 W3F      -0.581000
     37 O33         43.4080    -9.8710     9.0340 o          1 W3F      -0.576100
     38 O39         47.0870   -11.4520     9.7890 os         1 W3F      -0.216000
     39 O40         45.7270   -11.4760     6.7550 oh         1 W3F      -0.661000
     40 H011        45.5780    -7.5050    -4.0650 ha         1 W3F       0.131500
     41 H031        43.5180   -10.2510    -1.4590 ha         1 W3F       0.131500
     42 H041        41.4750    -8.8390    -1.5660 ha         1 W3F       0.115500
     43 H061        43.5450    -6.0770    -4.1870 ha         1 W3F       0.115500
     44 H071        41.3230    -5.6490    -3.6610 h1         1 W3F       0.078700
     45 H123        39.0360    -6.5560    -3.6310 hc         1 W3F       0.044700
     46 H122        40.1130    -7.6860    -4.4730 hc         1 W3F       0.044700
     47 H121        39.5830    -8.0330    -2.8120 hc         1 W3F       0.044700
     48 H131        38.7280    -2.5900    -0.4900 ha         1 W3F       0.139000
     49 H141        38.4210    -1.8360     1.8700 ha         1 W3F       0.126000
     50 H171        41.1230    -5.9600     0.9100 ha         1 W3F       0.113000
     51 H221        41.8460    -6.7630     2.9130 ha         1 W3F       0.182000
     52 H283        44.2960    -8.4860     3.5280 hc         1 W3F       0.043700
     53 H281        43.5910    -9.9280     4.2810 hc         1 W3F       0.043700
     54 H282        42.6240    -8.9590     3.1740 hc         1 W3F       0.043700
     55 H291        42.5210    -5.9770     8.9390 hc         1 W3F       0.058367
     56 H292        42.0240    -7.6320     9.3060 hc         1 W3F       0.058367
     57 H293        43.7470    -7.2310     9.1190 hc         1 W3F       0.058367
     58 H1          44.8900   -11.9630     8.6120 h1         1 W3F       0.083700
     59 H361        46.8930    -8.5350     8.2750 ha         1 W3F       0.145000
     60 H371        48.9030    -8.7270    10.0840 ha         1 W3F       0.144000
     61 H381        48.7320   -11.2600    11.1060 h4         1 W3F       0.057100
     62 H081        41.2470    -6.3480    -0.8430 hn         1 W3F       0.311500
     63 H181        39.1110    -2.5230     4.4860 hn         1 W3F       0.343500
     64 H241        41.4390    -5.6590     6.6490 hn         1 W3F       0.401000
     65 H301        44.6190    -9.8010     6.1620 hn         1 W3F       0.341500
     66 H2          46.4500   -12.1370     6.8580 ho         1 W3F       0.465000
     67 C09         40.1080    -4.7540    -1.4240 c          1 W3F       0.617700
@<TRIPOS>BOND
     1     1     2 ar  
     2     1     6 ar  
     3     1    40 1   
     4     2     3 ar  
     5     2    30 1   
     6     3     4 ar  
     7     3    41 1   
     8     4     5 ar  
     9     4    42 1   
    10     5     6 ar  
    11     5     7 1   
    12     6    43 1   
    13     7     9 1   
    14     7    31 1   
    15     7    44 1   
    16     8    10 ar  
    17     8    14 ar  
    18     8    67 1   
    19     9    45 1   
    20     9    46 1   
    21     9    47 1   
    22    10    11 ar  
    23    10    48 1   
    24    11    12 ar  
    25    11    49 1   
    26    12    13 ar  
    27    12    32 1   
    28    13    14 ar  
    29    13    16 1   
    30    14    50 1   
    31    15    16 1   
    32    15    32 1   
    33    15    36 2   
    34    16    17 2   
    35    17    18 1   
    36    17    51 1   
    37    18    21 2   
    38    18    33 1   
    39    19    20 2   
    40    19    23 1   
    41    19    33 1   
    42    20    21 1   
    43    20    34 1   
    44    21    22 1   
    45    22    52 1   
    46    22    53 1   
    47    22    54 1   
    48    23    55 1   
    49    23    56 1   
    50    23    57 1   
    51    24    25 1   
    52    24    34 1   
    53    24    37 2   
    54    25    26 1   
    55    25    39 1   
    56    25    58 1   
    57    26    27 2   
    58    26    38 1   
    59    27    28 1   
    60    27    59 1   
    61    28    29 2   
    62    28    60 1   
    63    29    38 1   
    64    29    61 1   
    65    31    62 1   
    66    31    67 1   
    67    32    63 1   
    68    33    64 1   
    69    34    65 1   
    70    35    67 2   
    71    39    66 1   
@<TRIPOS>SUBSTRUCTURE
     1 W3F         1 TEMP              0 ****  ****    0 ROOT
