@<TRIPOS>MOLECULE
W3F
   67    71     1     0     0
SMALL
abcg2


@<TRIPOS>ATOM
      1 C01         41.5900    -5.7660    -6.1370 ca         1 W3F      -0.152500
      2 C02         42.9000    -5.3600    -5.9810 ca         1 W3F       0.174000
      3 C03         43.6050    -5.5950    -4.8150 ca         1 W3F      -0.152500
      4 C04         42.9700    -6.2630    -3.7790 ca         1 W3F      -0.067500
      5 C05         41.6500    -6.6910    -3.8990 ca         1 W3F      -0.118300
      6 C06         40.9730    -6.4310    -5.0840 ca         1 W3F      -0.067500
      7 C07         40.9750    -7.4500    -2.7740 c3         1 W3F       0.164000
      8 C10         40.5380    -5.0010     0.0790 ca         1 W3F      -0.179600
      9 C12         41.5690    -8.8440    -2.6080 c3         1 W3F      -0.102100
     10 C13         40.1940    -3.6530     0.2060 ca         1 W3F      -0.027000
     11 C14         40.3740    -2.9670     1.3980 ca         1 W3F      -0.151000
     12 C15         40.8930    -3.6680     2.4710 ca         1 W3F       0.072600
     13 C16         41.2290    -5.0270     2.3790 ca         1 W3F      -0.099800
     14 C17         41.0500    -5.6930     1.1800 ca         1 W3F      -0.043000
     15 C19         41.6660    -4.2410     4.5350 c          1 W3F       0.586200
     16 C20         41.7310    -5.4380     3.6810 cc         1 W3F      -0.210400
     17 C22         42.1780    -6.6890     3.9970 cf         1 W3F       0.028800
     18 C23         42.7120    -7.2320     5.1810 cd         1 W3F      -0.220800
     19 C25         43.4620    -7.3460     7.2810 cd         1 W3F      -0.089300
     20 C26         43.6420    -8.5990     6.6920 cc         1 W3F      -0.062400
     21 C27         43.1720    -8.5440     5.3770 cc         1 W3F      -0.073300
     22 C28         43.1960    -9.6580     4.3890 c3         1 W3F      -0.027800
     23 C29         43.7840    -6.8990     8.6570 c3         1 W3F      -0.036800
     24 C31         43.6690   -10.3120     8.3910 c          1 W3F       0.610100
     25 C32         44.5030   -11.4400     9.0040 c3         1 W3F       0.066000
     26 C34         45.2130   -10.8820    10.1980 cc         1 W3F       0.069300
     27 C36         46.4620   -10.3780    10.3470 cd         1 W3F      -0.166000
     28 C37         46.5620    -9.9740    11.7130 cd         1 W3F      -0.192000
     29 C38         45.3680   -10.2620    12.2780 cc         1 W3F       0.133900
     30 F35         43.5110    -4.7160    -6.9900 f          1 W3F      -0.180000
     31 N08         41.0620    -6.7420    -1.5110 ns         1 W3F      -0.503900
     32 N18         41.1640    -3.2370     3.7520 ns         1 W3F      -0.389100
     33 N24         42.9000    -6.5550     6.3640 na         1 W3F      -0.063000
     34 N30         44.2180    -9.7110     7.3200 ns         1 W3F      -0.378100
     35 O11         39.4960    -5.2150    -2.0430 o          1 W3F      -0.598100
     36 O21         41.9750    -4.0930     5.7150 o          1 W3F      -0.581000
     37 O33         42.6190    -9.9770     8.9070 o          1 W3F      -0.576100
     38 O39         44.5420   -10.8160    11.3640 os         1 W3F      -0.216000
     39 O40         45.4120   -11.9180     8.0550 oh         1 W3F      -0.661000
     40 H011        41.0570    -5.5650    -7.0570 ha         1 W3F       0.131500
     41 H031        44.6300    -5.2640    -4.7170 ha         1 W3F       0.131500
     42 H041        43.5210    -6.4480    -2.8640 ha         1 W3F       0.115500
     43 H061        39.9440    -6.7510    -5.1970 ha         1 W3F       0.115500
     44 H071        39.9170    -7.5560    -3.0230 h1         1 W3F       0.078700
     45 H123        41.0400    -9.4000    -1.8340 hc         1 W3F       0.044700
     46 H122        41.4900    -9.4010    -3.5410 hc         1 W3F       0.044700
     47 H121        42.6250    -8.7960    -2.3360 hc         1 W3F       0.044700
     48 H131        39.7870    -3.1270    -0.6470 ha         1 W3F       0.139000
     49 H141        40.1160    -1.9190     1.4810 ha         1 W3F       0.126000
     50 H171        41.2830    -6.7490     1.1130 ha         1 W3F       0.113000
     51 H221        42.1270    -7.4120     3.1890 ha         1 W3F       0.182000
     52 H283        44.1270    -9.6660     3.8170 hc         1 W3F       0.043700
     53 H281        43.1200   -10.6210     4.8930 hc         1 W3F       0.043700
     54 H282        42.3760    -9.5910     3.6760 hc         1 W3F       0.043700
     55 H291        44.0490    -5.8420     8.6780 hc         1 W3F       0.058367
     56 H292        42.9370    -7.0450     9.3290 hc         1 W3F       0.058367
     57 H293        44.6210    -7.4700     9.0580 hc         1 W3F       0.058367
     58 H1          43.7940   -12.2130     9.3300 h1         1 W3F       0.083700
     59 H361        47.2210   -10.2970     9.5850 ha         1 W3F       0.145000
     60 H371        47.4130    -9.5300    12.2040 ha         1 W3F       0.144000
     61 H381        44.9740   -10.1410    13.2740 h4         1 W3F       0.057100
     62 H081        41.8340    -6.9730    -0.9050 hn         1 W3F       0.311500
     63 H181        41.0090    -2.2990     4.0890 hn         1 W3F       0.343500
     64 H241        42.6390    -5.5720     6.4680 hn         1 W3F       0.401000
     65 H301        45.0720   -10.0950     6.9440 hn         1 W3F       0.341500
     66 H2          45.9770   -12.5830     8.4640 ho         1 W3F       0.465000
     67 C09         40.3150    -5.6520    -1.2450 c          1 W3F       0.617700
@<TRIPOS>BOND
     1     1     2 ar  
     2     1     6 ar  
     3     1    40 1   
     4     2     3 ar  
     5     2    30 1   
     6     3     4 ar  
     7     3    41 1   
     8     4     5 ar  
     9     4    42 1   
    10     5     6 ar  
    11     5     7 1   
    12     6    43 1   
    13     7     9 1   
    14     7    31 1   
    15     7    44 1   
    16     8    10 ar  
    17     8    14 ar  
    18     8    67 1   
    19     9    45 1   
    20     9    46 1   
    21     9    47 1   
    22    10    11 ar  
    23    10    48 1   
    24    11    12 ar  
    25    11    49 1   
    26    12    13 ar  
    27    12    32 1   
    28    13    14 ar  
    29    13    16 1   
    30    14    50 1   
    31    15    16 1   
    32    15    32 1   
    33    15    36 2   
    34    16    17 2   
    35    17    18 1   
    36    17    51 1   
    37    18    21 2   
    38    18    33 1   
    39    19    20 2   
    40    19    23 1   
    41    19    33 1   
    42    20    21 1   
    43    20    34 1   
    44    21    22 1   
    45    22    52 1   
    46    22    53 1   
    47    22    54 1   
    48    23    55 1   
    49    23    56 1   
    50    23    57 1   
    51    24    25 1   
    52    24    34 1   
    53    24    37 2   
    54    25    26 1   
    55    25    39 1   
    56    25    58 1   
    57    26    27 2   
    58    26    38 1   
    59    27    28 1   
    60    27    59 1   
    61    28    29 2   
    62    28    60 1   
    63    29    38 1   
    64    29    61 1   
    65    31    62 1   
    66    31    67 1   
    67    32    63 1   
    68    33    64 1   
    69    34    65 1   
    70    35    67 2   
    71    39    66 1   
@<TRIPOS>SUBSTRUCTURE
     1 W3F         1 TEMP              0 ****  ****    0 ROOT
