@<TRIPOS>MOLECULE
W3G
   11    11     1     0     0
SMALL
bcc


@<TRIPOS>ATOM
      1 N1          -4.6510    15.1570    -1.4430 ns         1 W3G      -0.291900
      2 O           -6.7550    15.0260    -0.6160 o          1 W3G      -0.616500
      3 C           -5.5560    15.1560    -0.4060 c          1 W3G       0.672700
      4 N           -3.3360    15.2860    -1.3760 nc         1 W3G      -0.410300
      5 C3          -2.8100    15.4300    -0.2050 cd         1 W3G       0.334500
      6 C2          -3.5940    15.4530     0.9830 cd         1 W3G      -0.183600
      7 C1          -4.9340    15.3190     0.8900 cc         1 W3G      -0.216200
      8 H1          -5.0130    15.0490    -2.3810 hn         1 W3G       0.352500
      9 H2          -1.7340    15.5310    -0.1720 h4         1 W3G       0.046800
     10 H3          -3.1060    15.5790     1.9400 ha         1 W3G       0.148000
     11 H4          -5.5750    15.3310     1.7610 ha         1 W3G       0.164000
@<TRIPOS>BOND
     1     1     3 1   
     2     1     4 1   
     3     1     8 1   
     4     2     3 2   
     5     3     7 1   
     6     4     5 2   
     7     5     6 1   
     8     5     9 1   
     9     6     7 2   
    10     6    10 1   
    11     7    11 1   
@<TRIPOS>SUBSTRUCTURE
     1 W3G         1 TEMP              0 ****  ****    0 ROOT
