@<TRIPOS>MOLECULE
W3G
   11    11     1     0     0
SMALL
No Charge or Current Charge


@<TRIPOS>ATOM
      1 N1          -4.6730    15.1530    -1.4650 ns         1 W3G      -0.224900
      2 O           -6.7920    15.0250    -0.6030 o          1 W3G      -0.541000
      3 C           -5.5890    15.1510    -0.4320 c          1 W3G       0.530200
      4 N           -3.3050    15.2870    -1.3890 nc         1 W3G      -0.410300
      5 C3          -2.7500    15.4370    -0.1840 cd         1 W3G       0.334500
      6 C2          -3.5620    15.4580     1.0130 cd         1 W3G      -0.233600
      7 C1          -4.9420    15.3190     0.8810 cc         1 W3G      -0.266200
      8 H1          -5.0750    15.0400    -2.3920 hn         1 W3G       0.352500
      9 H2          -1.6720    15.5390    -0.1760 h4         1 W3G       0.046800
     10 H3          -3.0930    15.5810     1.9850 ha         1 W3G       0.198000
     11 H4          -5.6120    15.3250     1.7350 ha         1 W3G       0.214000
@<TRIPOS>BOND
     1     1     3 1   
     2     1     4 1   
     3     1     8 1   
     4     2     3 2   
     5     3     7 1   
     6     4     5 2   
     7     5     6 1   
     8     5     9 1   
     9     6     7 2   
    10     6    10 1   
    11     7    11 1   
@<TRIPOS>SUBSTRUCTURE
     1 W3G         1 TEMP              0 ****  ****    0 ROOT
