@<TRIPOS>MOLECULE
W3H
   26    26     1     0     0
SMALL
No Charge or Current Charge


@<TRIPOS>ATOM
      1 C7          42.1950    29.6450    24.8000 ca         1 W3H       0.157000
      2 C8          42.1210    29.1590    26.1140 ca         1 W3H      -0.129500
      3 C9          43.2290    28.5130    26.6900 ca         1 W3H      -0.003500
      4 O1          47.7880    31.1430    29.4830 o          1 W3H      -0.722500
      5 C1          46.9360    28.9230    27.2040 c3         1 W3H      -0.156700
      6 C5          44.4870    28.8460    24.6240 ca         1 W3H      -0.003500
      7 C6          43.3740    29.4900    24.0550 ca         1 W3H      -0.129500
      8 C4          44.4170    28.3550    25.9440 ca         1 W3H      -0.229500
      9 C2          46.2190    29.9120    28.1900 c3         1 W3H      -0.215400
     10 Cl          40.8060    30.4520    24.0840 cl         1 W3H      -0.218000
     11 S           45.8520    27.5380    26.6750 sy         1 W3H       0.960500
     12 O2          46.5650    26.8320    25.6010 o          1 W3H      -0.551500
     13 C           48.2810    28.3790    27.7610 c3         1 W3H      -0.082100
     14 O           47.0230    32.0890    27.7050 o          1 W3H      -0.722500
     15 H1          41.2060    29.2820    26.6870 ha         1 W3H       0.125000
     16 H2          43.1610    28.1440    27.7120 ha         1 W3H       0.140500
     17 H3          47.1520    29.4680    26.2770 h1         1 W3H       0.105700
     18 H4          45.3980    28.7320    24.0380 ha         1 W3H       0.140500
     19 H5          43.4270    29.8690    23.0380 ha         1 W3H       0.125000
     20 H7          45.3090    30.2360    27.6730 hc         1 W3H       0.038200
     21 H8          46.0230    29.3540    29.1140 hc         1 W3H       0.038200
     22 H10         48.7540    27.6960    27.0450 hc         1 W3H       0.052367
     23 H11         48.9890    29.1940    27.9490 hc         1 W3H       0.052367
     24 H6          48.1250    27.8350    28.7010 hc         1 W3H       0.052367
     25 C3          47.0740    31.1560    28.4920 c          1 W3H       0.729000
     26 O3          45.4220    26.8230    27.8860 o          1 W3H      -0.551500
@<TRIPOS>BOND
     1     1     2 ar  
     2     1     7 ar  
     3     1    10 1   
     4     2     3 ar  
     5     2    15 1   
     6     3     8 ar  
     7     3    16 1   
     8     4    25 1   
     9     5     9 1   
    10     5    11 1   
    11     5    13 1   
    12     5    17 1   
    13     6     7 ar  
    14     6     8 ar  
    15     6    18 1   
    16     7    19 1   
    17     8    11 1   
    18     9    20 1   
    19     9    21 1   
    20     9    25 1   
    21    11    12 2   
    22    11    26 2   
    23    13    22 1   
    24    13    23 1   
    25    13    24 1   
    26    14    25 1   
@<TRIPOS>SUBSTRUCTURE
     1 W3H         1 TEMP              0 ****  ****    0 ROOT
