@<TRIPOS>MOLECULE
W3H
   26    26     1     0     0
SMALL
abcg2


@<TRIPOS>ATOM
      1 C7          42.2150    29.6210    24.8680 ca         1 W3H       0.157000
      2 C8          42.1790    29.1770    26.1810 ca         1 W3H      -0.129500
      3 C9          43.3010    28.5670    26.7200 ca         1 W3H      -0.003500
      4 O1          46.7470    31.6790    29.6120 o          1 W3H      -0.722500
      5 C1          46.9550    28.9740    27.1570 c3         1 W3H      -0.156700
      6 C5          44.4680    28.8600    24.6260 ca         1 W3H      -0.003500
      7 C6          43.3500    29.4700    24.0840 ca         1 W3H      -0.129500
      8 C4          44.4390    28.4160    25.9410 ca         1 W3H      -0.229500
      9 C2          46.2720    29.8350    28.2050 c3         1 W3H      -0.215400
     10 CL          40.8160    30.3730    24.1920 cl         1 W3H      -0.218000
     11 S           45.8820    27.6220    26.6150 sy         1 W3H       0.960500
     12 O2          46.5460    26.9190    25.5150 o          1 W3H      -0.551500
     13 C           48.2510    28.3470    27.6540 c3         1 W3H      -0.082100
     14 O           47.8350    31.5660    27.6660 o          1 W3H      -0.722500
     15 H1          41.2880    29.3000    26.7810 ha         1 W3H       0.125000
     16 H2          43.2750    28.2160    27.7430 ha         1 W3H       0.140500
     17 H3          47.1410    29.5570    26.2520 h1         1 W3H       0.105700
     18 H4          45.3510    28.7340    24.0130 ha         1 W3H       0.140500
     19 H5          43.3630    29.8160    23.0600 ha         1 W3H       0.125000
     20 H7          45.2770    30.1400    27.8650 hc         1 W3H       0.038200
     21 H8          46.1210    29.2620    29.1220 hc         1 W3H       0.038200
     22 H10         48.7380    27.7400    26.8920 hc         1 W3H       0.052367
     23 H11         48.9360    29.1470    27.9260 hc         1 W3H       0.052367
     24 H6          48.0820    27.7320    28.5380 hc         1 W3H       0.052367
     25 C3          47.0380    31.1470    28.5260 c          1 W3H       0.729000
     26 O3          45.4680    26.8460    27.7860 o          1 W3H      -0.551500
@<TRIPOS>BOND
     1     1     2 ar  
     2     1     7 ar  
     3     1    10 1   
     4     2     3 ar  
     5     2    15 1   
     6     3     8 ar  
     7     3    16 1   
     8     4    25 1   
     9     5     9 1   
    10     5    11 1   
    11     5    13 1   
    12     5    17 1   
    13     6     7 ar  
    14     6     8 ar  
    15     6    18 1   
    16     7    19 1   
    17     8    11 1   
    18     9    20 1   
    19     9    21 1   
    20     9    25 1   
    21    11    12 2   
    22    11    26 2   
    23    13    22 1   
    24    13    23 1   
    25    13    24 1   
    26    14    25 1   
@<TRIPOS>SUBSTRUCTURE
     1 W3H         1 TEMP              0 ****  ****    0 ROOT
