@<TRIPOS>MOLECULE
W3I
   61    66     1     0     0
SMALL
abcg2


@<TRIPOS>ATOM
      1 C4           6.5350    11.3440    33.5630 c2         1 W3I       0.004000
      2 C14          5.0690    13.6680    32.1180 c2         1 W3I      -0.149000
      3 C5           5.2610    11.2780    33.0130 c2         1 W3I      -0.094000
      4 C6           4.5570    10.0930    33.2330 c2         1 W3I      -0.021000
      5 C7           5.1340     9.0920    33.9720 c2         1 W3I      -0.093000
      6 C9           3.5290     7.8690    35.1470 c3         1 W3I       0.559000
      7 C13          4.6570    12.3700    32.2580 c2         1 W3I      -0.066000
      8 N3           7.1040    10.3700    34.2570 n2         1 W3I      -0.223000
      9 C2           6.4390     9.2390    34.4770 c2         1 W3I       0.172000
     10 C16          3.1840    13.3430    31.0400 c2         1 W3I      -0.070000
     11 C24          4.1750    16.2300    29.5310 cx         1 W3I      -0.172000
     12 C32          3.1750    16.7670    31.3530 cx         1 W3I      -0.172000
     13 C33          5.3140    16.5960    31.3120 cx         1 W3I      -0.172000
     14 C27          5.4490    19.1020    29.2630 c6         1 W3I      -0.102500
     15 C31          4.2630    19.7000    31.2490 c6         1 W3I      -0.102500
     16 C28          5.3700    20.5510    28.8200 c6         1 W3I      -0.021000
     17 C30          4.2130    21.1310    30.7480 c6         1 W3I      -0.021000
     18 C25          4.2740    17.4310    30.4970 DU         1 W3I      -0.002000
     19 C20         -0.5180    13.2550    29.9660 c3         1 W3I      -0.205500
     20 C21          0.4950    13.7580    32.1950 c3         1 W3I      -0.205500
     21 C17          1.9740    13.5750    30.1780 c3         1 W3I       0.119000
     22 C19          0.7040    13.0560    30.8570 c3         1 W3I      -0.093000
     23 N22          3.4860    12.1900    31.5790 n2         1 W3I      -0.127000
     24 N15          4.1240    14.2780    31.3390 na         1 W3I      -0.093000
     25 N26          4.3170    18.7890    30.1180 n3         1 W3I      -0.204000
     26 O29          5.3130    21.4310    29.9200 os         1 W3I      -0.256000
     27 O18          2.1270    12.9160    28.9380 oh         1 W3I      -0.303000
     28 O8           4.4700     7.8910    34.1910 os         1 W3I      -0.248000
     29 F10          2.4620     8.6090    34.8410 f          1 W3I      -0.160667
     30 F11          3.9810     8.3130    36.3210 f          1 W3I      -0.160667
     31 F12          3.1350     6.6150    35.2930 f          1 W3I      -0.160667
     32 H1           7.1420    12.2350    33.4290 h4         1 W3I       0.154000
     33 H2           5.9210    14.2040    32.5030 h4         1 W3I       0.177000
     34 H3           3.5650     9.9660    32.8180 ha         1 W3I       0.177000
     35 H4           7.9180     8.5010    35.6350 hn         1 W3I       0.227000
     36 H5           6.5710     7.4730    35.5230 hn         1 W3I       0.227000
     37 H6           3.2540    16.1510    28.9500 hc         1 W3I       0.109000
     38 H7           5.0550    16.0030    28.9270 hc         1 W3I       0.109000
     39 H8           3.1420    17.0270    32.4120 hc         1 W3I       0.109000
     40 H9           2.1760    16.7250    30.9150 hc         1 W3I       0.109000
     41 H10          6.2730    16.3900    30.8340 hc         1 W3I       0.109000
     42 H11          5.4310    16.8430    32.3690 hc         1 W3I       0.109000
     43 H13          6.4100    18.9220    29.7730 h1         1 W3I       0.084250
     44 H14          3.3650    19.5010    31.8370 h1         1 W3I       0.084250
     45 H15          5.1290    19.5730    31.9190 h1         1 W3I       0.084250
     46 H16          6.2540    20.8130    28.2370 h1         1 W3I       0.093250
     47 H17          4.4880    20.6840    28.1770 h1         1 W3I       0.093250
     48 H18          4.2390    21.8230    31.5910 h1         1 W3I       0.093250
     49 H19          3.2690    21.2910    30.2070 h1         1 W3I       0.093250
     50 H20         -1.4150    12.9010    30.4740 hc         1 W3I       0.075167
     51 H21         -0.6660    14.3140    29.7390 hc         1 W3I       0.075167
     52 H22         -0.4390    12.7160    29.0230 hc         1 W3I       0.075167
     53 H23          1.3190    13.5890    32.8890 hc         1 W3I       0.075167
     54 H24          0.3870    14.8370    32.0590 hc         1 W3I       0.075167
     55 H25         -0.4150    13.3970    32.6770 hc         1 W3I       0.075167
     56 H26          1.8410    14.6530    30.0260 h1         1 W3I       0.070000
     57 H27          0.8360    11.9850    31.0440 hc         1 W3I       0.122000
     58 H29          2.8280    13.3520    28.4420 ho         1 W3I       0.202000
     59 N1           7.0840     8.2440    35.1330 nv         1 W3I      -0.338000
     60 C23          4.1620    15.6520    30.9570 DU         1 W3I       0.010000
     61 H12          5.4280    18.4630    28.3770 h1         1 W3I       0.084250
@<TRIPOS>BOND
     1     1     3 1   
     2     1     8 1   
     3     1    32 1   
     4     2     7 1   
     5     2    24 1   
     6     2    33 1   
     7     3     4 1   
     8     3     7 1   
     9     4     5 1   
    10     4    34 1   
    11     5     9 1   
    12     5    28 1   
    13     6    28 1   
    14     6    29 1   
    15     6    30 1   
    16     6    31 1   
    17     7    23 1   
    18     8     9 1   
    19     9    59 1   
    20    10    21 1   
    21    10    23 1   
    22    10    24 1   
    23    11    18 1   
    24    11    37 1   
    25    11    38 1   
    26    11    60 1   
    27    12    18 1   
    28    12    39 1   
    29    12    40 1   
    30    12    60 1   
    31    13    18 1   
    32    13    41 1   
    33    13    42 1   
    34    13    60 1   
    35    14    16 1   
    36    14    25 1   
    37    14    43 1   
    38    14    61 1   
    39    15    17 1   
    40    15    25 1   
    41    15    44 1   
    42    15    45 1   
    43    16    26 1   
    44    16    46 1   
    45    16    47 1   
    46    17    26 1   
    47    17    48 1   
    48    17    49 1   
    49    18    25 1   
    50    18    60 1   
    51    19    22 1   
    52    19    50 1   
    53    19    51 1   
    54    19    52 1   
    55    20    22 1   
    56    20    53 1   
    57    20    54 1   
    58    20    55 1   
    59    21    22 1   
    60    21    27 1   
    61    21    56 1   
    62    22    57 1   
    63    24    60 1   
    64    27    58 1   
    65    35    59 1   
    66    36    59 1   
@<TRIPOS>SUBSTRUCTURE
     1 W3I         1 TEMP              0 ****  ****    0 ROOT
