@<TRIPOS>MOLECULE
W3J
   16    16     1     0     0
SMALL
bcc


@<TRIPOS>ATOM
      1 N1           6.6830    22.6350    18.0650 nu         1 W3J      -0.930200
      2 N            4.9710    21.1790    17.6080 nv         1 W3J      -0.992800
      3 C            5.6100    22.3370    17.2820 c2         1 W3J       0.867100
      4 N2           5.1830    23.0400    16.2910 n2         1 W3J      -0.764900
      5 C3           5.9020    24.2560    15.9850 c6         1 W3J       0.148800
      6 C2           7.3730    24.2160    16.3810 c6         1 W3J      -0.127400
      7 C1           7.4820    23.8180    17.8410 c6         1 W3J       0.243800
      8 H1           6.9270    22.0270    18.8260 hn         1 W3J       0.425800
      9 H2           4.1530    20.9150    17.0910 hn         1 W3J       0.438300
     10 H3           5.2480    20.6080    18.3840 hn         1 W3J       0.438300
     11 H4           5.8200    24.4510    14.9110 h1         1 W3J       0.041700
     12 H5           5.4310    25.1210    16.4740 h1         1 W3J       0.041700
     13 H6           7.9050    23.4880    15.7610 hc         1 W3J       0.051200
     14 H7           7.8460    25.1860    16.2200 hc         1 W3J       0.051200
     15 H8           8.5160    23.5990    18.1120 h1         1 W3J       0.033700
     16 H9           7.1500    24.6470    18.4770 h1         1 W3J       0.033700
@<TRIPOS>BOND
     1     1     3 1   
     2     1     7 1   
     3     1     8 1   
     4     2     3 1   
     5     2     9 1   
     6     2    10 1   
     7     3     4 2   
     8     4     5 1   
     9     5     6 1   
    10     5    11 1   
    11     5    12 1   
    12     6     7 1   
    13     6    13 1   
    14     6    14 1   
    15     7    15 1   
    16     7    16 1   
@<TRIPOS>SUBSTRUCTURE
     1 W3J         1 TEMP              0 ****  ****    0 ROOT
