@<TRIPOS>MOLECULE
W3J
   16    16     1     0     0
SMALL
No Charge or Current Charge


@<TRIPOS>ATOM
      1 N1           6.6830    22.4080    17.9080 nu         1 W3J      -0.985400
      2 N            5.0810    21.2170    17.6980 nv         1 W3J      -1.103200
      3 C            5.7210    22.1230    17.0390 c2         1 W3J       0.867100
      4 N2           5.1950    22.9550    16.2490 n2         1 W3J      -0.764900
      5 C3           5.9130    24.2080    15.9140 c6         1 W3J       0.148800
      6 C2           7.3540    24.2520    16.4730 c6         1 W3J      -0.127400
      7 C1           7.3580    23.7120    17.9130 c6         1 W3J       0.243800
      8 H1           7.2680    21.5970    18.0790 hn         1 W3J       0.481000
      9 H2           4.1000    21.3150    17.4810 hn         1 W3J       0.493500
     10 H3           5.2810    21.4000    18.6670 hn         1 W3J       0.493500
     11 H4           5.9410    24.3300    14.8210 h1         1 W3J       0.041700
     12 H5           5.3390    25.0510    16.3260 h1         1 W3J       0.041700
     13 H6           8.0140    23.6350    15.8470 hc         1 W3J       0.051200
     14 H7           7.7500    25.2760    16.4410 hc         1 W3J       0.051200
     15 H8           8.3880    23.6270    18.2920 h1         1 W3J       0.033700
     16 H9           6.8160    24.4150    18.5630 h1         1 W3J       0.033700
@<TRIPOS>BOND
     1     1     3 1   
     2     1     7 1   
     3     1     8 1   
     4     2     3 1   
     5     2     9 1   
     6     2    10 1   
     7     3     4 2   
     8     4     5 1   
     9     5     6 1   
    10     5    11 1   
    11     5    12 1   
    12     6     7 1   
    13     6    13 1   
    14     6    14 1   
    15     7    15 1   
    16     7    16 1   
@<TRIPOS>SUBSTRUCTURE
     1 W3J         1 TEMP              0 ****  ****    0 ROOT
