@<TRIPOS>MOLECULE
W3M
   10    10     1     0     0
SMALL
abcg2


@<TRIPOS>ATOM
      1 N1          -3.3740    15.1040     1.3480 na         1 W3M      -0.272500
      2 N           -2.1650    14.8470    -1.9500 n1         1 W3M      -0.437000
      3 C           -2.8770    14.9220    -1.0460 cg         1 W3M       0.350000
      4 C1          -3.7670    15.0120     0.0400 cc         1 W3M      -0.162000
      5 C3          -5.1420    15.0280     0.0690 cd         1 W3M       0.303900
      6 N2          -5.5720    15.1270     1.3460 nd         1 W3M      -0.674000
      7 C2          -4.4860    15.1710     2.0870 cc         1 W3M       0.414400
      8 H1          -2.4240    15.1210     1.6900 hn         1 W3M       0.365000
      9 H2          -5.8140    14.9720    -0.7730 h4         1 W3M       0.051100
     10 H4          -4.4560    15.2500     3.1620 h5         1 W3M       0.062100
@<TRIPOS>BOND
     1     1     4 1   
     2     1     7 1   
     3     1     8 1   
     4     2     3 3   
     5     3     4 1   
     6     4     5 2   
     7     5     6 1   
     8     5     9 1   
     9     6     7 2   
    10     7    10 1   
@<TRIPOS>SUBSTRUCTURE
     1 W3M         1 TEMP              0 ****  ****    0 ROOT
