@<TRIPOS>MOLECULE
W3M
   10    10     1     0     0
SMALL
No Charge or Current Charge


@<TRIPOS>ATOM
      1 N1          -3.3620    15.1060     1.3630 na         1 W3M      -0.272500
      2 N           -2.1740    14.8430    -2.0050 n1         1 W3M      -0.437000
      3 C           -2.8960    14.9190    -1.0920 cg         1 W3M       0.350000
      4 C1          -3.7490    15.0110     0.0410 cc         1 W3M      -0.162000
      5 C3          -5.1180    15.0260     0.0520 cd         1 W3M       0.303900
      6 N2          -5.5820    15.1280     1.3520 nd         1 W3M      -0.674000
      7 C2          -4.5030    15.1740     2.1250 cc         1 W3M       0.414400
      8 H1          -2.4170    15.1230     1.7270 hn         1 W3M       0.365000
      9 H2          -5.7930    14.9700    -0.7940 h4         1 W3M       0.051100
     10 H4          -4.4820    15.2540     3.2060 h5         1 W3M       0.062100
@<TRIPOS>BOND
     1     1     4 1   
     2     1     7 1   
     3     1     8 1   
     4     2     3 3   
     5     3     4 1   
     6     4     5 2   
     7     5     6 1   
     8     5     9 1   
     9     6     7 2   
    10     7    10 1   
@<TRIPOS>SUBSTRUCTURE
     1 W3M         1 TEMP              0 ****  ****    0 ROOT
