@<TRIPOS>MOLECULE
W3N
   48    52     1     0     0
SMALL
abcg2


@<TRIPOS>ATOM
      1 C1          -4.0660   -15.8600   -20.9770 c3         1 W3N       0.171000
      2 C2          -2.5570   -15.8530   -20.8540 ca         1 W3N      -0.116300
      3 C3          -1.8020   -16.7930   -21.5430 ca         1 W3N      -0.082000
      4 C7          -1.9140   -14.8780   -20.1010 ca         1 W3N      -0.074000
      5 C8           0.1290   -13.7890   -19.2220 cc         1 W3N       0.288500
      6 C9           1.4710   -13.5620   -19.0430 cd         1 W3N      -0.210000
      7 C10          0.2920   -12.0930   -17.9320 cd         1 W3N       0.396400
      8 C11         -5.2520   -14.6490   -19.1560 cc         1 W3N       0.018600
      9 C12         -5.7730   -14.5260   -17.9150 cd         1 W3N      -0.234400
     10 C13         -5.7390   -15.6780   -17.0390 c          1 W3N       0.590200
     11 C14         -4.6340   -16.9300   -18.8680 c          1 W3N       0.615000
     12 C15         -6.4110   -13.2740   -17.4810 ca         1 W3N      -0.034800
     13 C16         -7.3920   -12.6690   -18.2440 ca         1 W3N      -0.074000
     14 C19         -6.6410   -11.3730   -15.9290 ca         1 W3N      -0.235900
     15 C20         -6.0500   -12.5940   -16.3030 ca         1 W3N      -0.009200
     16 C21         -5.9790   -11.0210   -14.7220 cc         1 W3N       0.347800
     17 O1          -4.1510   -17.9680   -19.2620 o          1 W3N      -0.545000
     18 N2          -4.6980   -15.7890   -19.6460 n          1 W3N      -0.303000
     19 C6          -0.5230   -14.8270   -20.0200 ca         1 W3N      -0.097500
     20 N1          -0.5890   -12.8580   -18.5180 nc         1 W3N      -0.674000
     21 N            1.5500   -12.4820   -18.2210 na         1 W3N      -0.298500
     22 C5           0.2210   -15.7800   -20.7200 ca         1 W3N      -0.098000
     23 C4          -0.4160   -16.7510   -21.4750 ca         1 W3N      -0.112000
     24 C           -4.5420   -14.7600   -21.9140 c3         1 W3N      -0.108100
     25 N3          -5.1620   -16.7970   -17.6110 ns         1 W3N      -0.466500
     26 O           -6.1700   -15.7150   -15.9010 o          1 W3N      -0.529000
     27 N4          -5.1260   -12.8590   -15.3500 na         1 W3N      -0.044400
     28 N5          -5.0860   -11.9220   -14.4010 nd         1 W3N      -0.515100
     29 C18         -7.6320   -10.7920   -16.7300 ca         1 W3N      -0.029000
     30 C17         -7.9940   -11.4480   -17.8830 ca         1 W3N      -0.153000
     31 H1          -4.3760   -16.8130   -21.4060 h1         1 W3N       0.084700
     32 H2          -2.2950   -17.5580   -22.1310 ha         1 W3N       0.117000
     33 H3          -2.4900   -14.1340   -19.5640 ha         1 W3N       0.132000
     34 H4           2.3490   -14.0600   -19.4180 h4         1 W3N       0.159000
     35 H5           0.0780   -11.2520   -17.2910 h5         1 W3N       0.059100
     36 H6          -5.2580   -13.8010   -19.8250 h4         1 W3N       0.215000
     37 H7          -7.7180   -13.1610   -19.1520 ha         1 W3N       0.107000
     38 H8          -6.1330   -10.1510   -14.1010 h4         1 W3N       0.046800
     39 H10          2.3990   -12.0490   -17.8900 hn         1 W3N       0.355000
     40 H11          1.3030   -15.7690   -20.6770 ha         1 W3N       0.109000
     41 H12          0.1730   -17.4860   -22.0090 ha         1 W3N       0.115000
     42 H13         -5.6300   -14.7360   -21.9910 hc         1 W3N       0.052367
     43 H14         -4.1800   -13.7730   -21.6280 hc         1 W3N       0.052367
     44 H15         -4.1450   -14.9730   -22.9050 hc         1 W3N       0.052367
     45 H16         -5.1270   -17.6320   -17.0380 hn         1 W3N       0.344500
     46 H17         -4.5240   -13.6620   -15.2730 hn         1 W3N       0.384000
     47 H18         -8.0950    -9.8540   -16.4510 ha         1 W3N       0.117000
     48 H19         -8.7570   -11.0320   -18.5270 ha         1 W3N       0.113000
@<TRIPOS>BOND
     1     1     2 1   
     2     1    18 1   
     3     1    24 1   
     4     1    31 1   
     5     2     3 ar  
     6     2     4 ar  
     7     3    23 ar  
     8     3    32 1   
     9     4    19 ar  
    10     4    33 1   
    11     5     6 2   
    12     5    19 1   
    13     5    20 1   
    14     6    21 1   
    15     6    34 1   
    16     7    20 2   
    17     7    21 1   
    18     7    35 1   
    19     8     9 2   
    20     8    18 1   
    21     8    36 1   
    22     9    10 1   
    23     9    12 1   
    24    10    25 1   
    25    10    26 2   
    26    11    17 2   
    27    11    18 1   
    28    11    25 1   
    29    12    13 ar  
    30    12    15 ar  
    31    13    30 ar  
    32    13    37 1   
    33    14    15 ar  
    34    14    16 1   
    35    14    29 ar  
    36    15    27 1   
    37    16    28 2   
    38    16    38 1   
    39    19    22 ar  
    40    21    39 1   
    41    22    23 ar  
    42    22    40 1   
    43    23    41 1   
    44    24    42 1   
    45    24    43 1   
    46    24    44 1   
    47    25    45 1   
    48    27    28 1   
    49    27    46 1   
    50    29    30 ar  
    51    29    47 1   
    52    30    48 1   
@<TRIPOS>SUBSTRUCTURE
     1 W3N         1 TEMP              0 ****  ****    0 ROOT
