@<TRIPOS>MOLECULE
W3N
   48    52     1     0     0
SMALL
No Charge or Current Charge


@<TRIPOS>ATOM
      1 C1          -4.0550   -15.8790   -20.9460 c3         1 W3N       0.171000
      2 C2          -2.5270   -15.8630   -20.8680 ca         1 W3N      -0.116300
      3 C3          -1.7800   -16.9280   -21.4030 ca         1 W3N      -0.082000
      4 C7          -1.8520   -14.7850   -20.2570 ca         1 W3N      -0.074000
      5 C8           0.2350   -13.6110   -19.5420 cc         1 W3N       0.288500
      6 C9           1.5620   -13.6260   -19.2110 cd         1 W3N      -0.210000
      7 C10          0.5820   -11.6870   -18.6610 cd         1 W3N       0.396400
      8 C11         -5.2220   -14.5870   -19.0910 cc         1 W3N       0.018600
      9 C12         -5.7240   -14.4830   -17.8020 cd         1 W3N      -0.234400
     10 C13         -5.7250   -15.7220   -16.9610 c          1 W3N       0.590200
     11 C14         -4.6120   -16.9270   -18.7750 c          1 W3N       0.615000
     12 C15         -6.3520   -13.1940   -17.3670 ca         1 W3N      -0.034800
     13 C16         -6.8810   -12.2960   -18.3370 ca         1 W3N      -0.074000
     14 C19         -6.9540   -11.5310   -15.6840 ca         1 W3N      -0.235900
     15 C20         -6.4350   -12.7460   -16.0240 ca         1 W3N      -0.009200
     16 C21         -6.8000   -11.4040   -14.2580 cc         1 W3N       0.347800
     17 O1          -4.1320   -17.9900   -19.1330 o          1 W3N      -0.545000
     18 N2          -4.6770   -15.7800   -19.5900 n          1 W3N      -0.303000
     19 C6          -0.4420   -14.7600   -20.1670 ca         1 W3N      -0.097500
     20 N1          -0.3710   -12.4350   -19.2040 nc         1 W3N      -0.674000
     21 N            1.7830   -12.3780   -18.6450 na         1 W3N      -0.298500
     22 C5           0.2870   -15.8340   -20.7250 ca         1 W3N      -0.098000
     23 C4          -0.3790   -16.9100   -21.3340 ca         1 W3N      -0.112000
     24 C           -4.5400   -14.8420   -21.9880 c3         1 W3N      -0.108100
     25 N3          -5.1470   -16.8040   -17.5380 ns         1 W3N      -0.466500
     26 O           -6.1980   -15.8240   -15.8430 o          1 W3N      -0.529000
     27 N4          -5.9880   -13.3020   -14.8410 na         1 W3N      -0.044400
     28 N5          -6.2100   -12.4830   -13.7260 nd         1 W3N      -0.515100
     29 C18         -7.4720   -10.6410   -16.6270 ca         1 W3N      -0.029000
     30 C17         -7.4370   -11.0460   -17.9730 ca         1 W3N      -0.153000
     31 H1          -4.3570   -16.8530   -21.3550 h1         1 W3N       0.084700
     32 H2          -2.2820   -17.7700   -21.8760 ha         1 W3N       0.117000
     33 H3          -2.4310   -13.9630   -19.8430 ha         1 W3N       0.132000
     34 H4           2.3280   -14.3860   -19.3180 h4         1 W3N       0.159000
     35 H5           0.4820   -10.6800   -18.2700 h5         1 W3N       0.059100
     36 H6          -5.1600   -13.7640   -19.7900 h4         1 W3N       0.215000
     37 H7          -6.8940   -12.5610   -19.3900 ha         1 W3N       0.107000
     38 H8          -7.0760   -10.6020   -13.5850 h4         1 W3N       0.046800
     39 H10          2.6550   -12.0170   -18.2760 hn         1 W3N       0.355000
     40 H11          1.3730   -15.8450   -20.6990 ha         1 W3N       0.109000
     41 H12          0.1940   -17.7330   -21.7570 ha         1 W3N       0.115000
     42 H13         -5.6350   -14.8230   -22.0370 hc         1 W3N       0.052367
     43 H14         -4.1760   -13.8340   -21.7610 hc         1 W3N       0.052367
     44 H15         -4.1650   -15.1100   -22.9830 hc         1 W3N       0.052367
     45 H16         -5.1240   -17.6370   -16.9730 hn         1 W3N       0.344500
     46 H17         -5.6140   -14.2460   -14.7470 hn         1 W3N       0.384000
     47 H18         -7.8800    -9.6750   -16.3350 ha         1 W3N       0.117000
     48 H19         -7.8360   -10.3880   -18.7420 ha         1 W3N       0.113000
@<TRIPOS>BOND
     1     1     2 1   
     2     1    18 1   
     3     1    24 1   
     4     1    31 1   
     5     2     3 ar  
     6     2     4 ar  
     7     3    23 ar  
     8     3    32 1   
     9     4    19 ar  
    10     4    33 1   
    11     5     6 2   
    12     5    19 1   
    13     5    20 1   
    14     6    21 1   
    15     6    34 1   
    16     7    20 2   
    17     7    21 1   
    18     7    35 1   
    19     8     9 2   
    20     8    18 1   
    21     8    36 1   
    22     9    10 1   
    23     9    12 1   
    24    10    25 1   
    25    10    26 2   
    26    11    17 2   
    27    11    18 1   
    28    11    25 1   
    29    12    13 ar  
    30    12    15 ar  
    31    13    30 ar  
    32    13    37 1   
    33    14    15 ar  
    34    14    16 1   
    35    14    29 ar  
    36    15    27 1   
    37    16    28 2   
    38    16    38 1   
    39    19    22 ar  
    40    21    39 1   
    41    22    23 ar  
    42    22    40 1   
    43    23    41 1   
    44    24    42 1   
    45    24    43 1   
    46    24    44 1   
    47    25    45 1   
    48    27    28 1   
    49    27    46 1   
    50    29    30 ar  
    51    29    47 1   
    52    30    48 1   
@<TRIPOS>SUBSTRUCTURE
     1 W3N         1 TEMP              0 ****  ****    0 ROOT
