@<TRIPOS>MOLECULE
W3O
   47    47     1     0     0
SMALL
No Charge or Current Charge


@<TRIPOS>ATOM
      1 C10        -30.6030    26.5490   126.5910 c3         1 W3O      -0.190000
      2 C11        -29.6370    25.3890   126.9580 c3         1 W3O      -0.049000
      3 C13        -27.6910    25.8220   125.3790 c2         1 W3O       0.019000
      4 C14        -26.9620    25.4860   124.3020 c2         1 W3O      -0.139000
      5 C15        -27.1900    24.3380   123.6370 c2         1 W3O       0.000000
      6 C16        -28.1650    23.4680   124.0160 c2         1 W3O      -0.151000
      7 C17        -28.4260    22.3080   123.3600 c          1 W3O       0.361000
      8 C20        -28.9110    23.7900   125.1050 c2         1 W3O       0.051000
      9 C01        -32.4030    28.5350   122.8640 c3         1 W3O      -0.188000
     10 C02        -32.9280    27.1120   122.4910 c3         1 W3O      -0.410000
     11 C03        -34.2610    26.8190   123.2540 c3         1 W3O      -0.188000
     12 C04        -33.2640    27.1120   120.9660 c3         1 W3O      -0.188000
     13 C06        -30.2240    25.8330   121.7070 c3         1 W3O      -0.612500
     14 C07        -32.2280    24.1550   123.1720 c3         1 W3O      -0.612500
     15 C09        -31.6150    26.2290   125.4700 c3         1 W3O       0.027000
     16 N12        -28.7270    24.9820   125.8690 na         1 W3O      -0.005000
     17 N18        -27.6800    21.9490   122.2360 nt         1 W3O      -0.408000
     18 O08        -30.8860    26.2290   124.2290 os         1 W3O      -0.610000
     19 O19        -29.2970    21.5030   123.6700 o          1 W3O      -0.328000
     20 SI05       -31.6270    25.8010   122.8110 s6         1 W3O       1.373000
     21 H101       -30.0310    27.4440   126.3150 hc         1 W3O       0.118000
     22 H102       -31.1690    26.8190   127.4920 hc         1 W3O       0.118000
     23 H111       -30.2210    24.5180   127.2840 h1         1 W3O       0.129000
     24 H112       -29.0220    25.6930   127.8160 h1         1 W3O       0.129000
     25 H131       -27.5500    26.7410   125.9460 h4         1 W3O       0.202000
     26 H141       -26.1730    26.1590   123.9610 ha         1 W3O       0.194000
     27 H151       -26.5570    24.1370   122.7710 ha         1 W3O       0.178000
     28 H201       -29.7170    23.1660   125.4870 h4         1 W3O       0.217000
     29 H012       -32.1910    28.6280   123.9350 hc         1 W3O       0.077000
     30 H011       -31.4790    28.7740   122.3210 hc         1 W3O       0.077000
     31 H013       -33.1430    29.3060   122.6110 hc         1 W3O       0.077000
     32 H031       -34.1410    26.8250   124.3410 hc         1 W3O       0.077000
     33 H032       -35.0210    27.5750   123.0140 hc         1 W3O       0.077000
     34 H033       -34.6760    25.8430   122.9720 hc         1 W3O       0.077000
     35 H043       -34.0370    27.8550   120.7300 hc         1 W3O       0.077000
     36 H042       -32.3820    27.3570   120.3590 hc         1 W3O       0.077000
     37 H041       -33.6360    26.1330   120.6360 hc         1 W3O       0.077000
     38 H061       -29.4970    25.1080   122.0840 h1         1 W3O       0.104167
     39 H062       -30.5830    25.5610   120.7090 h1         1 W3O       0.104167
     40 H063       -29.8200    26.8500   121.7270 h1         1 W3O       0.104167
     41 H071       -33.0170    24.2390   123.9250 h1         1 W3O       0.104167
     42 H072       -32.6200    23.7430   122.2360 h1         1 W3O       0.104167
     43 H073       -31.3810    23.5680   123.5390 h1         1 W3O       0.104167
     44 H092       -32.3840    27.0100   125.4800 h1         1 W3O       0.074000
     45 H091       -32.0950    25.2610   125.6750 h1         1 W3O       0.074000
     46 H182       -27.8900    21.0810   121.7640 hn         1 W3O       0.248500
     47 H181       -26.9290    22.5320   121.9010 hn         1 W3O       0.248500
@<TRIPOS>BOND
     1     1     2 1   
     2     1    15 1   
     3     1    21 1   
     4     1    22 1   
     5     2    16 1   
     6     2    23 1   
     7     2    24 1   
     8     3     4 1   
     9     3    16 1   
    10     3    25 1   
    11     4     5 1   
    12     4    26 1   
    13     5     6 1   
    14     5    27 1   
    15     6     7 1   
    16     6     8 1   
    17     7    17 1   
    18     7    19 1   
    19     8    16 1   
    20     8    28 1   
    21     9    10 1   
    22     9    29 1   
    23     9    30 1   
    24     9    31 1   
    25    10    11 1   
    26    10    12 1   
    27    10    20 1   
    28    11    32 1   
    29    11    33 1   
    30    11    34 1   
    31    12    35 1   
    32    12    36 1   
    33    12    37 1   
    34    13    20 1   
    35    13    38 1   
    36    13    39 1   
    37    13    40 1   
    38    14    20 1   
    39    14    41 1   
    40    14    42 1   
    41    14    43 1   
    42    15    18 1   
    43    15    44 1   
    44    15    45 1   
    45    17    46 1   
    46    17    47 1   
    47    18    20 1   
@<TRIPOS>SUBSTRUCTURE
     1 W3O         1 TEMP              0 ****  ****    0 ROOT
