@<TRIPOS>MOLECULE
W3O
   47    47     1     0     0
SMALL
abcg2


@<TRIPOS>ATOM
      1 C10        -30.4730    26.4760   126.7020 c3         1 W3O      -0.190000
      2 C11        -29.5870    25.2600   126.9120 c3         1 W3O      -0.049000
      3 C13        -27.7510    25.8220   125.4260 c2         1 W3O       0.019000
      4 C14        -26.9360    25.5850   124.3480 c2         1 W3O      -0.139000
      5 C15        -27.1170    24.4300   123.6030 c2         1 W3O       0.000000
      6 C16        -28.1240    23.5400   123.9540 c2         1 W3O      -0.151000
      7 C17        -28.4310    22.2660   123.2180 c2         1 W3O       0.361000
      8 C20        -28.9310    23.8520   125.0300 c2         1 W3O       0.051000
      9 C01        -32.4910    28.5780   122.7390 c3         1 W3O      -0.188000
     10 C02        -32.9990    27.1570   122.4860 c3         1 W3O      -0.410000
     11 C03        -34.2650    26.9080   123.3140 c3         1 W3O      -0.188000
     12 C04        -33.3570    27.0080   121.0020 c3         1 W3O      -0.188000
     13 C06        -30.2750    25.9320   121.6240 c3         1 W3O      -0.612500
     14 C07        -32.3900    24.1670   123.0250 c3         1 W3O      -0.612500
     15 C09        -31.5050    26.3370   125.6010 c3         1 W3O       0.027000
     16 N12        -28.7250    24.9580   125.7470 na         1 W3O      -0.005000
     17 N18        -27.4270    21.7380   122.5150 nt         1 W3O      -0.408000
     18 O08        -30.8680    26.2760   124.3460 os         1 W3O      -0.610000
     19 O19        -29.5470    21.7790   123.2880 o          1 W3O      -0.328000
     20 SI05       -31.6450    25.8880   122.9030 s6         1 W3O       1.373000
     21 H101       -29.8690    27.3720   126.5400 hc         1 W3O       0.118000
     22 H102       -30.9980    26.6320   127.6470 hc         1 W3O       0.118000
     23 H111       -30.1850    24.3730   127.1070 h1         1 W3O       0.129000
     24 H112       -28.9230    25.4090   127.7620 h1         1 W3O       0.129000
     25 H131       -27.6410    26.6920   126.0580 h4         1 W3O       0.202000
     26 H141       -26.1640    26.2970   124.1010 ha         1 W3O       0.194000
     27 H151       -26.4750    24.2500   122.7510 ha         1 W3O       0.178000
     28 H201       -29.7430    23.2110   125.3410 h4         1 W3O       0.217000
     29 H012       -32.2620    28.7530   123.7920 hc         1 W3O       0.077000
     30 H011       -31.5870    28.8000   122.1660 hc         1 W3O       0.077000
     31 H013       -33.2480    29.3130   122.4450 hc         1 W3O       0.077000
     32 H031       -34.0930    27.0050   124.3880 hc         1 W3O       0.077000
     33 H032       -35.0410    27.6330   123.0460 hc         1 W3O       0.077000
     34 H033       -34.6780    25.9140   123.1350 hc         1 W3O       0.077000
     35 H043       -34.1670    27.6950   120.7380 hc         1 W3O       0.077000
     36 H042       -32.5130    27.2370   120.3480 hc         1 W3O       0.077000
     37 H041       -33.7000    25.9980   120.7600 hc         1 W3O       0.077000
     38 H061       -29.4620    25.2560   121.8930 h1         1 W3O       0.104167
     39 H062       -30.6470    25.6200   120.6460 h1         1 W3O       0.104167
     40 H063       -29.8520    26.9310   121.5100 h1         1 W3O       0.104167
     41 H071       -33.0840    24.0730   123.8620 h1         1 W3O       0.104167
     42 H072       -32.9460    23.9240   122.1170 h1         1 W3O       0.104167
     43 H073       -31.6170    23.4060   123.1470 h1         1 W3O       0.104167
     44 H092       -32.1770    27.2010   125.6560 h1         1 W3O       0.074000
     45 H091       -32.1200    25.4460   125.7840 h1         1 W3O       0.074000
     46 H182       -27.5740    20.8740   122.0170 hn         1 W3O       0.248500
     47 H181       -26.4770    22.0640   122.5770 hn         1 W3O       0.248500
@<TRIPOS>BOND
     1     1     2 1   
     2     1    15 1   
     3     1    21 1   
     4     1    22 1   
     5     2    16 1   
     6     2    23 1   
     7     2    24 1   
     8     3     4 1   
     9     3    16 1   
    10     3    25 1   
    11     4     5 1   
    12     4    26 1   
    13     5     6 1   
    14     5    27 1   
    15     6     7 1   
    16     6     8 1   
    17     7    17 1   
    18     7    19 1   
    19     8    16 1   
    20     8    28 1   
    21     9    10 1   
    22     9    29 1   
    23     9    30 1   
    24     9    31 1   
    25    10    11 1   
    26    10    12 1   
    27    10    20 1   
    28    11    32 1   
    29    11    33 1   
    30    11    34 1   
    31    12    35 1   
    32    12    36 1   
    33    12    37 1   
    34    13    20 1   
    35    13    38 1   
    36    13    39 1   
    37    13    40 1   
    38    14    20 1   
    39    14    41 1   
    40    14    42 1   
    41    14    43 1   
    42    15    18 1   
    43    15    44 1   
    44    15    45 1   
    45    17    46 1   
    46    17    47 1   
    47    18    20 1   
@<TRIPOS>SUBSTRUCTURE
     1 W3O         1 TEMP              0 ****  ****    0 ROOT
