@<TRIPOS>MOLECULE
W3P
   16    17     1     0     0
SMALL
No Charge or Current Charge


@<TRIPOS>ATOM
      1 N1          -5.0500    14.9910    -1.5290 nb         1 W3P      -0.110000
      2 C4          -2.9940    15.1320    -0.2650 ca         1 W3P      -0.170000
      3 C5          -3.7100    15.0550     0.9360 ca         1 W3P      -0.050000
      4 C6          -5.1120    14.9460     0.8760 ca         1 W3P      -0.134000
      5 C7          -5.8580    14.8670     2.0660 ca         1 W3P      -0.050000
      6 C           -7.2510    14.7590     1.9750 ca         1 W3P      -0.170000
      7 C2          -5.7740    14.9150    -0.3870 ca         1 W3P       0.050000
      8 N           -7.1220    14.8100    -0.4390 nb         1 W3P      -0.110000
      9 C1          -7.8380    14.7340     0.7020 ca         1 W3P       0.101900
     10 C3          -3.7070    15.0960    -1.4710 ca         1 W3P       0.101900
     11 H1          -1.9110    15.2170    -0.2640 ha         1 W3P       0.127000
     12 H2          -3.1890    15.0800     1.8910 ha         1 W3P       0.120500
     13 H3          -5.3700    14.8890     3.0390 ha         1 W3P       0.120500
     14 H4          -7.8660    14.6950     2.8690 ha         1 W3P       0.127000
     15 H5          -8.9180    14.6510     0.5890 h4         1 W3P       0.023100
     16 H6          -3.1870    15.1530    -2.4260 h4         1 W3P       0.023100
@<TRIPOS>BOND
     1     1     7 ar  
     2     1    10 ar  
     3     2     3 ar  
     4     2    10 ar  
     5     2    11 1   
     6     3     4 ar  
     7     3    12 1   
     8     4     5 ar  
     9     4     7 ar  
    10     5     6 ar  
    11     5    13 1   
    12     6     9 ar  
    13     6    14 1   
    14     7     8 ar  
    15     8     9 ar  
    16     9    15 1   
    17    10    16 1   
@<TRIPOS>SUBSTRUCTURE
     1 W3P         1 TEMP              0 ****  ****    0 ROOT
