@<TRIPOS>MOLECULE
W3P
   16    17     1     0     0
SMALL
bcc


@<TRIPOS>ATOM
      1 N1          -5.0700    14.9910    -1.5020 nb         1 W3P      -0.636000
      2 C4          -3.0180    15.1290    -0.2590 ca         1 W3P      -0.253300
      3 C5          -3.6840    15.0580     0.9310 ca         1 W3P      -0.068000
      4 C6          -5.0900    14.9480     0.9170 ca         1 W3P      -0.199300
      5 C7          -5.8780    14.8660     2.0850 ca         1 W3P      -0.068000
      6 C           -7.2330    14.7590     1.9590 ca         1 W3P      -0.253300
      7 C2          -5.7480    14.9170    -0.3370 ca         1 W3P       0.641300
      8 N           -7.0900    14.8120    -0.4390 nb         1 W3P      -0.636000
      9 C1          -7.7890    14.7380     0.6630 ca         1 W3P       0.430200
     10 C3          -3.7670    15.0910    -1.4530 ca         1 W3P       0.430200
     11 H1          -1.9410    15.2110    -0.3020 ha         1 W3P       0.145000
     12 H2          -3.1540    15.0850     1.8750 ha         1 W3P       0.138500
     13 H3          -5.4020    14.8890     3.0580 ha         1 W3P       0.138500
     14 H4          -7.8800    14.6920     2.8220 ha         1 W3P       0.145000
     15 H5          -8.8650    14.6560     0.5500 h4         1 W3P       0.023100
     16 H6          -3.2480    15.1480    -2.4050 h4         1 W3P       0.023100
@<TRIPOS>BOND
     1     1     7 ar  
     2     1    10 ar  
     3     2     3 ar  
     4     2    10 ar  
     5     2    11 1   
     6     3     4 ar  
     7     3    12 1   
     8     4     5 ar  
     9     4     7 ar  
    10     5     6 ar  
    11     5    13 1   
    12     6     9 ar  
    13     6    14 1   
    14     7     8 ar  
    15     8     9 ar  
    16     9    15 1   
    17    10    16 1   
@<TRIPOS>SUBSTRUCTURE
     1 W3P         1 TEMP              0 ****  ****    0 ROOT
