@<TRIPOS>MOLECULE
W3Q
   25    25     1     0     0
SMALL
No Charge or Current Charge


@<TRIPOS>ATOM
      1 N1          23.1860     7.9150   -32.7710 nt         1 W3Q      -0.593000
      2 C7          21.1830     7.1310   -35.7170 c3         1 W3Q       0.173300
      3 C8          22.7640     7.1560   -33.7910 c          1 W3Q       0.638100
      4 O1          23.2080     6.0430   -33.9980 o          1 W3Q      -0.645100
      5 C1          18.8350     8.0900   -36.0600 ca         1 W3Q       0.155100
      6 C5          20.6910     8.9820   -37.3690 ca         1 W3Q      -0.068000
      7 C6          20.2080     8.0860   -36.3940 ca         1 W3Q      -0.149300
      8 C4          19.8160     9.8740   -38.0100 ca         1 W3Q      -0.151000
      9 C3          18.4520     9.8790   -37.6820 ca         1 W3Q      -0.066000
     10 C2          17.9610     8.9910   -36.7100 ca         1 W3Q      -0.201000
     11 N           21.8080     7.7540   -34.5540 ns         1 W3Q      -0.520900
     12 C           17.0080     7.1430   -34.6880 c3         1 W3Q       0.147900
     13 H1          23.8950     7.5530   -32.1520 hn         1 W3Q       0.296500
     14 H2          22.8000     8.8340   -32.6240 hn         1 W3Q       0.296500
     15 H3          20.6680     6.2140   -35.4000 h1         1 W3Q       0.065200
     16 H4          21.9680     6.8410   -36.4280 h1         1 W3Q       0.065200
     17 H5          21.7480     8.9880   -37.6300 ha         1 W3Q       0.113000
     18 H6          20.1970    10.5630   -38.7610 ha         1 W3Q       0.117000
     19 H7          17.7760    10.5710   -38.1790 ha         1 W3Q       0.112000
     20 H8          16.9010     9.0180   -36.4760 ha         1 W3Q       0.118000
     21 H9          21.5080     8.6820   -34.2870 hn         1 W3Q       0.305500
     22 H10         16.8760     6.3750   -33.9150 h1         1 W3Q       0.042700
     23 H11         16.6800     8.1040   -34.2710 h1         1 W3Q       0.042700
     24 H12         16.3610     6.8850   -35.5360 h1         1 W3Q       0.042700
     25 O           18.3860     7.2060   -35.0970 os         1 W3Q      -0.339100
@<TRIPOS>BOND
     1     1     3 1   
     2     1    13 1   
     3     1    14 1   
     4     2     7 1   
     5     2    11 1   
     6     2    15 1   
     7     2    16 1   
     8     3     4 2   
     9     3    11 1   
    10     5     7 ar  
    11     5    10 ar  
    12     5    25 1   
    13     6     7 ar  
    14     6     8 ar  
    15     6    17 1   
    16     8     9 ar  
    17     8    18 1   
    18     9    10 ar  
    19     9    19 1   
    20    10    20 1   
    21    11    21 1   
    22    12    22 1   
    23    12    23 1   
    24    12    24 1   
    25    12    25 1   
@<TRIPOS>SUBSTRUCTURE
     1 W3Q         1 TEMP              0 ****  ****    0 ROOT
