@<TRIPOS>MOLECULE
W3Q
   25    25     1     0     0
SMALL
abcg2


@<TRIPOS>ATOM
      1 N1          22.5350     7.6510   -32.5300 nt         1 W3Q      -0.593000
      2 C7          21.4910     7.3690   -36.0510 c3         1 W3Q       0.173300
      3 C8          22.0780     7.0300   -33.6700 c          1 W3Q       0.638100
      4 O1          21.8550     5.8150   -33.6980 o          1 W3Q      -0.645100
      5 C1          19.0890     8.1710   -36.0450 ca         1 W3Q       0.155100
      6 C5          20.5910     9.0350   -37.7120 ca         1 W3Q      -0.068000
      7 C6          20.3750     8.2100   -36.6150 ca         1 W3Q      -0.149300
      8 C4          19.5690     9.8130   -38.2540 ca         1 W3Q      -0.151000
      9 C3          18.3060     9.7610   -37.6820 ca         1 W3Q      -0.066000
     10 C2          18.0600     8.9450   -36.5780 ca         1 W3Q      -0.201000
     11 N           21.9390     7.8390   -34.7510 ns         1 W3Q      -0.520900
     12 C           17.6510     7.2380   -34.3710 c3         1 W3Q       0.147900
     13 H1          22.4150     7.1190   -31.6820 hn         1 W3Q       0.296500
     14 H2          22.4070     8.6460   -32.4290 hn         1 W3Q       0.296500
     15 H3          21.1670     6.3390   -35.9160 h1         1 W3Q       0.065200
     16 H4          22.3240     7.3670   -36.7590 h1         1 W3Q       0.065200
     17 H5          21.5810     9.0630   -38.1510 ha         1 W3Q       0.113000
     18 H6          19.7600    10.4460   -39.1090 ha         1 W3Q       0.117000
     19 H7          17.4970    10.3560   -38.0880 ha         1 W3Q       0.112000
     20 H8          17.0690     8.9140   -36.1480 ha         1 W3Q       0.118000
     21 H9          22.1890     8.8120   -34.6680 hn         1 W3Q       0.305500
     22 H10         17.7650     6.5220   -33.5610 h1         1 W3Q       0.042700
     23 H11         17.3290     8.2010   -33.9680 h1         1 W3Q       0.042700
     24 H12         16.9070     6.8740   -35.0830 h1         1 W3Q       0.042700
     25 O           18.9360     7.3410   -34.9800 os         1 W3Q      -0.339100
@<TRIPOS>BOND
     1     1     3 1   
     2     1    13 1   
     3     1    14 1   
     4     2     7 1   
     5     2    11 1   
     6     2    15 1   
     7     2    16 1   
     8     3     4 2   
     9     3    11 1   
    10     5     7 ar  
    11     5    10 ar  
    12     5    25 1   
    13     6     7 ar  
    14     6     8 ar  
    15     6    17 1   
    16     8     9 ar  
    17     8    18 1   
    18     9    10 ar  
    19     9    19 1   
    20    10    20 1   
    21    11    21 1   
    22    12    22 1   
    23    12    23 1   
    24    12    24 1   
    25    12    25 1   
@<TRIPOS>SUBSTRUCTURE
     1 W3Q         1 TEMP              0 ****  ****    0 ROOT
