@<TRIPOS>MOLECULE
W3R
   41    44     1     0     0
SMALL
No Charge or Current Charge


@<TRIPOS>ATOM
      1 C1         -15.6410     0.5290   -38.8280 c3         1 W3R       0.170000
      2 C2         -17.1330     0.3630   -38.5300 ca         1 W3R      -0.109300
      3 C3         -17.9830    -0.2430   -39.4780 ca         1 W3R      -0.090000
      4 C7         -17.6760     0.8140   -37.3080 ca         1 W3R      -0.090000
      5 C8         -14.5430     2.4970   -37.6490 cc         1 W3R       0.013600
      6 C9         -14.2300     3.8450   -37.5540 cd         1 W3R      -0.233400
      7 C10        -14.5810     4.7190   -38.7170 c          1 W3R       0.588200
      8 C11        -15.6200     2.7970   -39.8160 c          1 W3R       0.613000
      9 C12        -13.4430     4.3260   -36.3740 ca         1 W3R      -0.040800
     10 C13        -12.5990     3.4220   -35.6670 ca         1 W3R      -0.072000
     11 C14        -11.8750     3.8210   -34.5190 ca         1 W3R      -0.153000
     12 C15        -11.9800     5.1330   -34.0270 ca         1 W3R      -0.027000
     13 C16        -12.8090     6.0100   -34.7290 ca         1 W3R      -0.235900
     14 O1         -16.2330     2.4070   -40.7960 o          1 W3R      -0.542000
     15 N          -15.2210     1.9620   -38.7550 n          1 W3R      -0.304000
     16 C6         -19.0470     0.6610   -37.0400 ca         1 W3R      -0.108500
     17 C5         -19.8870     0.0550   -37.9890 ca         1 W3R      -0.098000
     18 C4         -19.3540    -0.3960   -39.2080 ca         1 W3R      -0.108500
     19 C          -14.8180    -0.4600   -37.9670 c3         1 W3R      -0.108100
     20 N1         -15.2600     4.0980   -39.7120 ns         1 W3R      -0.467500
     21 O          -14.3030     5.9000   -38.8310 o          1 W3R      -0.525000
     22 C17        -13.4970     5.6440   -35.8490 ca         1 W3R      -0.011200
     23 N2         -14.2450     6.7430   -36.2350 na         1 W3R      -0.047400
     24 N3         -14.0360     7.8350   -35.3730 nc         1 W3R      -0.513100
     25 C18        -13.1650     7.3810   -34.4610 cd         1 W3R       0.350800
     26 H1         -15.4730     0.2090   -39.8660 h1         1 W3R       0.085700
     27 H2         -17.5840    -0.5950   -40.4270 ha         1 W3R       0.113000
     28 H3         -17.0370     1.2860   -36.5650 ha         1 W3R       0.113000
     29 H4         -14.3440     1.7690   -36.8750 h4         1 W3R       0.213000
     30 H5         -12.4690     2.4010   -36.0120 ha         1 W3R       0.107000
     31 H6         -11.2360     3.1040   -34.0080 ha         1 W3R       0.115000
     32 H7         -11.4440     5.4480   -33.1330 ha         1 W3R       0.119000
     33 H8         -19.4580     1.0120   -36.0960 ha         1 W3R       0.116500
     34 H9         -20.9480    -0.0630   -37.7810 ha         1 W3R       0.116000
     35 H10        -20.0040    -0.8640   -39.9450 ha         1 W3R       0.116500
     36 H11        -15.0840    -1.4920   -38.2270 hc         1 W3R       0.052367
     37 H12        -13.7450    -0.3340   -38.1510 hc         1 W3R       0.052367
     38 H13        -15.0140    -0.3310   -36.8970 hc         1 W3R       0.052367
     39 H14        -15.5210     4.6820   -40.4900 hn         1 W3R       0.345500
     40 H15        -14.8090     6.8100   -37.0820 hn         1 W3R       0.382000
     41 H16        -12.8380     8.0400   -33.6660 h4         1 W3R       0.048800
@<TRIPOS>BOND
     1     1     2 1   
     2     1    15 1   
     3     1    19 1   
     4     1    26 1   
     5     2     3 ar  
     6     2     4 ar  
     7     3    18 ar  
     8     3    27 1   
     9     4    16 ar  
    10     4    28 1   
    11     5     6 2   
    12     5    15 1   
    13     5    29 1   
    14     6     7 1   
    15     6     9 1   
    16     7    20 1   
    17     7    21 2   
    18     8    14 2   
    19     8    15 1   
    20     8    20 1   
    21     9    10 ar  
    22     9    22 ar  
    23    10    11 ar  
    24    10    30 1   
    25    11    12 ar  
    26    11    31 1   
    27    12    13 ar  
    28    12    32 1   
    29    13    22 ar  
    30    13    25 1   
    31    16    17 ar  
    32    16    33 1   
    33    17    18 ar  
    34    17    34 1   
    35    18    35 1   
    36    19    36 1   
    37    19    37 1   
    38    19    38 1   
    39    20    39 1   
    40    22    23 1   
    41    23    24 1   
    42    23    40 1   
    43    24    25 2   
    44    25    41 1   
@<TRIPOS>SUBSTRUCTURE
     1 W3R         1 TEMP              0 ****  ****    0 ROOT
