@<TRIPOS>MOLECULE
W3R
   41    44     1     0     0
SMALL
abcg2


@<TRIPOS>ATOM
      1 C1         -15.6760     0.5340   -38.6960 c3         1 W3R       0.170000
      2 C2         -17.1770     0.4760   -38.5220 ca         1 W3R      -0.109300
      3 C3         -17.9300    -0.3720   -39.3270 ca         1 W3R      -0.090000
      4 C7         -17.8200     1.2150   -37.5330 ca         1 W3R      -0.090000
      5 C8         -14.5350     2.4860   -37.6490 cc         1 W3R       0.013600
      6 C9         -14.1190     3.7710   -37.6060 cd         1 W3R      -0.233400
      7 C10        -14.4060     4.6250   -38.7400 c          1 W3R       0.588200
      8 C11        -15.5020     2.6820   -39.8150 c          1 W3R       0.613000
      9 C12        -13.3210     4.2720   -36.4770 ca         1 W3R      -0.040800
     10 C13        -12.1870     3.6030   -36.0560 ca         1 W3R      -0.072000
     11 C14        -11.4090     4.0310   -34.9630 ca         1 W3R      -0.153000
     12 C15        -11.7440     5.1610   -34.2550 ca         1 W3R      -0.027000
     13 C16        -12.8870     5.8680   -34.6490 ca         1 W3R      -0.235900
     14 O1         -16.0860     2.2270   -40.7740 o          1 W3R      -0.542000
     15 N          -15.2010     1.9310   -38.6950 n          1 W3R      -0.304000
     16 C6         -19.1930     1.1120   -37.3600 ca         1 W3R      -0.108500
     17 C5         -19.9390     0.2630   -38.1670 ca         1 W3R      -0.098000
     18 C4         -19.3020    -0.4820   -39.1500 ca         1 W3R      -0.108500
     19 C          -14.9710    -0.3280   -37.6580 c3         1 W3R      -0.108100
     20 N1         -15.0880     3.9870   -39.7590 ns         1 W3R      -0.467500
     21 O          -14.0910     5.7970   -38.8420 o          1 W3R      -0.525000
     22 C17        -13.6560     5.4240   -35.7410 ca         1 W3R      -0.011200
     23 N2         -14.6890     6.2930   -35.8380 na         1 W3R      -0.047400
     24 N3         -14.6390     7.2510   -34.9100 nc         1 W3R      -0.513100
     25 C18        -13.5730     7.0230   -34.1870 cd         1 W3R       0.350800
     26 H1         -15.4240     0.1310   -39.6780 h1         1 W3R       0.085700
     27 H2         -17.4400    -0.9510   -40.1010 ha         1 W3R       0.113000
     28 H3         -17.2570     1.8810   -36.8900 ha         1 W3R       0.113000
     29 H4         -14.3430     1.8310   -36.8110 h4         1 W3R       0.213000
     30 H5         -11.8760     2.7190   -36.5990 ha         1 W3R       0.107000
     31 H6         -10.5320     3.4590   -34.6900 ha         1 W3R       0.115000
     32 H7         -11.1460     5.4950   -33.4160 ha         1 W3R       0.119000
     33 H8         -19.6810     1.6960   -36.5900 ha         1 W3R       0.116500
     34 H9         -21.0100     0.1840   -38.0320 ha         1 W3R       0.116000
     35 H10        -19.8750    -1.1440   -39.7870 ha         1 W3R       0.116500
     36 H11        -15.2740    -1.3610   -37.8240 hc         1 W3R       0.052367
     37 H12        -13.8860    -0.2800   -37.7600 hc         1 W3R       0.052367
     38 H13        -15.2470    -0.0730   -36.6350 hc         1 W3R       0.052367
     39 H14        -15.3010     4.5420   -40.5800 hn         1 W3R       0.345500
     40 H15        -15.4400     6.2950   -36.5080 hn         1 W3R       0.382000
     41 H16        -13.3160     7.6700   -33.3630 h4         1 W3R       0.048800
@<TRIPOS>BOND
     1     1     2 1   
     2     1    15 1   
     3     1    19 1   
     4     1    26 1   
     5     2     3 ar  
     6     2     4 ar  
     7     3    18 ar  
     8     3    27 1   
     9     4    16 ar  
    10     4    28 1   
    11     5     6 2   
    12     5    15 1   
    13     5    29 1   
    14     6     7 1   
    15     6     9 1   
    16     7    20 1   
    17     7    21 2   
    18     8    14 2   
    19     8    15 1   
    20     8    20 1   
    21     9    10 ar  
    22     9    22 ar  
    23    10    11 ar  
    24    10    30 1   
    25    11    12 ar  
    26    11    31 1   
    27    12    13 ar  
    28    12    32 1   
    29    13    22 ar  
    30    13    25 1   
    31    16    17 ar  
    32    16    33 1   
    33    17    18 ar  
    34    17    34 1   
    35    18    35 1   
    36    19    36 1   
    37    19    37 1   
    38    19    38 1   
    39    20    39 1   
    40    22    23 1   
    41    23    24 1   
    42    23    40 1   
    43    24    25 2   
    44    25    41 1   
@<TRIPOS>SUBSTRUCTURE
     1 W3R         1 TEMP              0 ****  ****    0 ROOT
