@<TRIPOS>MOLECULE
W3S
   16    17     1     0     0
SMALL
No Charge or Current Charge


@<TRIPOS>ATOM
      1 N1          -7.4200    14.9920     0.6910 nc         1 W3S      -0.405700
      2 N3          -5.2490    15.1380     0.8440 na         1 W3S      -0.009800
      3 C4          -2.9720    15.3670     0.3730 cc         1 W3S      -0.151000
      4 C5          -3.9550    15.2920     1.3570 cd         1 W3S      -0.085000
      5 C           -6.4150    15.0750     1.5450 cd         1 W3S       0.503700
      6 C1          -5.5560    15.1180    -0.4760 cd         1 W3S      -0.103000
      7 N2          -6.8720    15.0190    -0.6060 nc         1 W3S      -0.080000
      8 C3          -3.2610    15.3160    -1.0440 cc         1 W3S      -0.095000
      9 C2          -4.5600    15.1970    -1.4950 cd         1 W3S      -0.074000
     10 H1          -1.9330    15.4740     0.6690 ha         1 W3S       0.132000
     11 H2          -3.7980    15.3350     2.4290 h4         1 W3S       0.148000
     12 H3          -7.4600    14.8210     3.2760 hn         1 W3S       0.455500
     13 H4          -5.7420    14.8640     3.4730 hn         1 W3S       0.455500
     14 H5          -2.4390    15.3830    -1.7490 ha         1 W3S       0.125000
     15 H6          -4.8060    15.1710    -2.5520 ha         1 W3S       0.146000
     16 N           -6.5520    15.0720     2.8980 nv         1 W3S      -0.964200
@<TRIPOS>BOND
     1     1     5 2   
     2     1     7 1   
     3     2     4 1   
     4     2     5 1   
     5     2     6 1   
     6     3     4 2   
     7     3     8 1   
     8     3    10 1   
     9     4    11 1   
    10     5    16 1   
    11     6     7 2   
    12     6     9 1   
    13     8     9 2   
    14     8    14 1   
    15     9    15 1   
    16    12    16 1   
    17    13    16 1   
@<TRIPOS>SUBSTRUCTURE
     1 W3S         1 TEMP              0 ****  ****    0 ROOT
