@<TRIPOS>MOLECULE
W3S
   16    17     1     0     0
SMALL
bcc


@<TRIPOS>ATOM
      1 N1          -7.3870    14.9560     0.6880 nc         1 W3S      -0.405700
      2 N3          -5.2290    15.1710     0.8660 na         1 W3S      -0.111200
      3 C4          -2.9570    15.4020     0.3710 cc         1 W3S      -0.169000
      4 C5          -3.9370    15.3260     1.2970 cd         1 W3S      -0.052300
      5 C           -6.4070    15.0610     1.5420 cd         1 W3S       0.503700
      6 C1          -5.5830    15.1130    -0.4690 cd         1 W3S      -0.052300
      7 N2          -6.8820    14.9970    -0.5710 nc         1 W3S      -0.080000
      8 C3          -3.2720    15.3220    -1.0210 cc         1 W3S      -0.113000
      9 C2          -4.5550    15.1830    -1.4420 cd         1 W3S      -0.092000
     10 H1          -1.9340    15.5270     0.6940 ha         1 W3S       0.150000
     11 H2          -3.7740    15.3860     2.3630 h4         1 W3S       0.166000
     12 H3          -7.4310    15.0360     3.2390 hn         1 W3S       0.400300
     13 H4          -5.8740    14.5060     3.4020 hn         1 W3S       0.400300
     14 H5          -2.4690    15.3770    -1.7440 ha         1 W3S       0.143000
     15 H6          -4.8160    15.1260    -2.4890 ha         1 W3S       0.164000
     16 N           -6.4830    15.1440     2.9070 nv         1 W3S      -0.853800
@<TRIPOS>BOND
     1     1     5 2   
     2     1     7 1   
     3     2     4 1   
     4     2     5 1   
     5     2     6 1   
     6     3     4 2   
     7     3     8 1   
     8     3    10 1   
     9     4    11 1   
    10     5    16 1   
    11     6     7 2   
    12     6     9 1   
    13     8     9 2   
    14     8    14 1   
    15     9    15 1   
    16    12    16 1   
    17    13    16 1   
@<TRIPOS>SUBSTRUCTURE
     1 W3S         1 TEMP              0 ****  ****    0 ROOT
