@<TRIPOS>MOLECULE
W3U
   24    25     1     0     0
SMALL
abcg2


@<TRIPOS>ATOM
      1 N1           0.6890    13.2610   -36.5720 nc         1 W3U      -0.590800
      2 C7          -0.6860    14.6380   -35.4950 cc         1 W3U      -0.172000
      3 C8          -1.3380    13.4260   -35.5800 cd         1 W3U      -0.221600
      4 C9          -0.4190    12.6100   -36.2680 cd         1 W3U       0.261900
      5 O1          -3.3190    13.9850   -34.4700 o          1 W3U      -0.730000
      6 C1           0.6320    17.2650   -39.5350 ca         1 W3U      -0.120000
      7 C5           2.6010    15.9420   -39.9090 ca         1 W3U      -0.120000
      8 C4           2.5680    15.5240   -38.5840 ca         1 W3U      -0.084500
      9 C3           1.5720    15.9730   -37.7260 ca         1 W3U      -0.091300
     10 C2           0.6040    16.8480   -38.2120 ca         1 W3U      -0.084500
     11 C10         -2.7000    13.0740   -35.0570 c          1 W3U       0.741600
     12 O           -3.0830    11.9040   -35.2570 o          1 W3U      -0.730000
     13 N            0.5090    14.4910   -36.0900 na         1 W3U       0.091800
     14 C            1.6320    16.8120   -40.3870 ca         1 W3U      -0.114000
     15 H1          -0.9840    15.5770   -35.0550 h4         1 W3U       0.144000
     16 H2          -0.5300    11.5710   -36.5410 h4         1 W3U       0.032100
     17 H8           3.3280    14.8460   -38.2150 ha         1 W3U       0.116500
     18 H9          -0.1760    17.2110   -37.5520 ha         1 W3U       0.116500
     19 H10          1.6570    17.1420   -41.4180 ha         1 W3U       0.100000
     20 C6           1.5210    15.5060   -36.2950 c3         1 W3U       0.141900
     21 H4          -0.1250    17.9470   -39.9010 ha         1 W3U       0.104000
     22 H6           2.4850    15.1000   -35.9870 h1         1 W3U       0.051700
     23 H7           1.2840    16.3340   -35.6270 h1         1 W3U       0.051700
     24 H5           3.3850    15.5870   -40.5660 ha         1 W3U       0.104000
@<TRIPOS>BOND
     1     1     4 2   
     2     1    13 1   
     3     2     3 2   
     4     2    13 1   
     5     2    15 1   
     6     3     4 1   
     7     3    11 1   
     8     4    16 1   
     9     5    11 1   
    10     6    10 ar  
    11     6    14 ar  
    12     6    21 1   
    13     7     8 ar  
    14     7    14 ar  
    15     7    24 1   
    16     8     9 ar  
    17     8    17 1   
    18     9    10 ar  
    19     9    20 1   
    20    10    18 1   
    21    11    12 1   
    22    13    20 1   
    23    14    19 1   
    24    20    22 1   
    25    20    23 1   
@<TRIPOS>SUBSTRUCTURE
     1 W3U         1 TEMP              0 ****  ****    0 ROOT
