@<TRIPOS>MOLECULE
W3U
   24    25     1     0     0
SMALL
No Charge or Current Charge


@<TRIPOS>ATOM
      1 N1           0.4960    12.9750   -36.5530 nc         1 W3U      -0.590800
      2 C7          -0.6740    14.6710   -35.4840 cc         1 W3U      -0.172000
      3 C8          -1.4260    13.5250   -35.4730 cd         1 W3U      -0.221600
      4 C9          -0.6760    12.5330   -36.1290 cd         1 W3U       0.261900
      5 O1          -3.2870    14.3440   -34.3380 o          1 W3U      -0.730000
      6 C1           0.4680    16.9350   -39.6590 ca         1 W3U      -0.120000
      7 C5           2.8520    16.4960   -39.8390 ca         1 W3U      -0.120000
      8 C4           2.8390    15.9020   -38.5650 ca         1 W3U      -0.084500
      9 C3           1.6390    15.8150   -37.8290 ca         1 W3U      -0.091300
     10 C2           0.4530    16.3420   -38.3850 ca         1 W3U      -0.084500
     11 C10         -2.7720    13.3750   -34.8770 c          1 W3U       0.741600
     12 O           -3.3170    12.2840   -34.9470 o          1 W3U      -0.730000
     13 N            0.4890    14.3000   -36.1540 na         1 W3U       0.091800
     14 C            1.6660    17.0120   -40.3870 ca         1 W3U      -0.114000
     15 H1          -0.8560    15.6660   -35.0960 h4         1 W3U       0.144000
     16 H2          -0.9490    11.5010   -36.3100 h4         1 W3U       0.032100
     17 H8           3.7640    15.5080   -38.1500 ha         1 W3U       0.116500
     18 H9          -0.4820    16.2950   -37.8320 ha         1 W3U       0.116500
     19 H10          1.6760    17.4720   -41.3730 ha         1 W3U       0.100000
     20 C6           1.6460    15.1750   -36.4400 c3         1 W3U       0.141900
     21 H4          -0.4510    17.3370   -40.0810 ha         1 W3U       0.104000
     22 H6           2.5610    14.5840   -36.3120 h1         1 W3U       0.051700
     23 H7           1.6670    15.9710   -35.6860 h1         1 W3U       0.051700
     24 H5           3.7810    16.5570   -40.4000 ha         1 W3U       0.104000
@<TRIPOS>BOND
     1     1     4 2   
     2     1    13 1   
     3     2     3 2   
     4     2    13 1   
     5     2    15 1   
     6     3     4 1   
     7     3    11 1   
     8     4    16 1   
     9     5    11 1   
    10     6    10 ar  
    11     6    14 ar  
    12     6    21 1   
    13     7     8 ar  
    14     7    14 ar  
    15     7    24 1   
    16     8     9 ar  
    17     8    17 1   
    18     9    10 ar  
    19     9    20 1   
    20    10    18 1   
    21    11    12 1   
    22    13    20 1   
    23    14    19 1   
    24    20    22 1   
    25    20    23 1   
@<TRIPOS>SUBSTRUCTURE
     1 W3U         1 TEMP              0 ****  ****    0 ROOT
