@<TRIPOS>MOLECULE
W3V
   23    23     1     0     0
SMALL
abcg2


@<TRIPOS>ATOM
      1 N1          -0.8920    15.8000    -4.7710 n          1 W3V      -0.400800
      2 C4           0.9960    14.7720    -3.5790 c6         1 W3V      -0.081400
      3 C5           0.5330    15.5230    -4.8230 c6         1 W3V       0.085000
      4 C6           0.5950    12.6890    -2.1240 c          1 W3V       0.722000
      5 O2           1.7210    12.9200    -1.6380 o          1 W3V      -0.733500
      6 O1          -0.2330    11.8540    -1.7050 o          1 W3V      -0.733500
      7 C3           0.1930    13.4870    -3.3890 c6         1 W3V      -0.190700
      8 C2          -1.3070    13.7790    -3.4470 c6         1 W3V      -0.081400
      9 C1          -1.6800    14.5820    -4.6880 c6         1 W3V       0.085000
     10 C           -1.4340    16.9740    -4.3370 c          1 W3V       0.637100
     11 O           -2.6440    17.1250    -4.1990 o          1 W3V      -0.667100
     12 N           -0.5730    18.0200    -4.1360 nt         1 W3V      -0.599000
     13 H1           2.0590    14.5480    -3.6710 hc         1 W3V       0.049200
     14 H2           0.8840    15.4220    -2.7040 hc         1 W3V       0.049200
     15 H3           0.7140    14.9050    -5.7090 h1         1 W3V       0.038450
     16 H4           1.1030    16.4370    -4.9840 h1         1 W3V       0.038450
     17 H6           0.4220    12.8360    -4.2480 hc         1 W3V       0.023700
     18 H7          -1.6170    14.3390    -2.5580 hc         1 W3V       0.049200
     19 H8          -1.8730    12.8460    -3.4420 hc         1 W3V       0.049200
     20 H9          -2.7390    14.8290    -4.6960 h1         1 W3V       0.038450
     21 H10         -1.4810    13.9870    -5.5860 h1         1 W3V       0.038450
     22 H11         -0.9930    18.8210    -3.6960 hn         1 W3V       0.291000
     23 H12          0.3780    17.8590    -3.8500 hn         1 W3V       0.291000
@<TRIPOS>BOND
     1     1     3 1   
     2     1     9 1   
     3     1    10 1   
     4     2     3 1   
     5     2     7 1   
     6     2    13 1   
     7     2    14 1   
     8     3    15 1   
     9     3    16 1   
    10     4     5 1   
    11     4     6 1   
    12     4     7 1   
    13     7     8 1   
    14     7    17 1   
    15     8     9 1   
    16     8    18 1   
    17     8    19 1   
    18     9    20 1   
    19     9    21 1   
    20    10    11 2   
    21    10    12 1   
    22    12    22 1   
    23    12    23 1   
@<TRIPOS>SUBSTRUCTURE
     1 W3V         1 TEMP              0 ****  ****    0 ROOT
