@<TRIPOS>MOLECULE
W3V
   23    23     1     0     0
SMALL
No Charge or Current Charge


@<TRIPOS>ATOM
      1 N1          -0.9120    16.0190    -4.1860 n          1 W3V      -0.400800
      2 C4           1.0460    14.5630    -3.3490 c6         1 W3V      -0.081400
      3 C5           0.5540    15.7110    -4.2640 c6         1 W3V       0.085000
      4 C6           0.6690    12.1270    -2.6020 c          1 W3V       0.722000
      5 O2           0.7610    12.2710    -1.3910 o          1 W3V      -0.733500
      6 O1           0.9690    11.0950    -3.1830 o          1 W3V      -0.733500
      7 C3           0.1450    13.3130    -3.4520 c6         1 W3V      -0.190700
      8 C2          -1.2930    13.7280    -3.0710 c6         1 W3V      -0.081400
      9 C1          -1.8270    14.8520    -3.9890 c6         1 W3V       0.085000
     10 C           -1.4370    17.2170    -4.7090 c          1 W3V       0.637100
     11 O           -2.6310    17.4230    -4.8380 o          1 W3V      -0.667100
     12 N           -0.5560    18.1680    -5.0740 nt         1 W3V      -0.599000
     13 H1           2.0810    14.3050    -3.6110 hc         1 W3V       0.049200
     14 H2           1.0700    14.9190    -2.3100 hc         1 W3V       0.049200
     15 H3           0.7890    15.4520    -5.3060 h1         1 W3V       0.038450
     16 H4           1.1390    16.6060    -4.0120 h1         1 W3V       0.038450
     17 H6           0.1390    12.9810    -4.5000 hc         1 W3V       0.023700
     18 H7          -1.3190    14.0720    -2.0280 hc         1 W3V       0.049200
     19 H8          -1.9640    12.8600    -3.1280 hc         1 W3V       0.049200
     20 H9          -2.7850    15.2030    -3.5790 h1         1 W3V       0.038450
     21 H10         -2.0420    14.4230    -4.9790 h1         1 W3V       0.038450
     22 H11         -0.8990    19.0380    -5.4500 hn         1 W3V       0.291000
     23 H12          0.4330    18.0070    -4.9670 hn         1 W3V       0.291000
@<TRIPOS>BOND
     1     1     3 1   
     2     1     9 1   
     3     1    10 1   
     4     2     3 1   
     5     2     7 1   
     6     2    13 1   
     7     2    14 1   
     8     3    15 1   
     9     3    16 1   
    10     4     5 1   
    11     4     6 1   
    12     4     7 1   
    13     7     8 1   
    14     7    17 1   
    15     8     9 1   
    16     8    18 1   
    17     8    19 1   
    18     9    20 1   
    19     9    21 1   
    20    10    11 2   
    21    10    12 1   
    22    12    22 1   
    23    12    23 1   
@<TRIPOS>SUBSTRUCTURE
     1 W3V         1 TEMP              0 ****  ****    0 ROOT
