@<TRIPOS>MOLECULE
W3W
   45    48     1     0     0
SMALL
No Charge or Current Charge


@<TRIPOS>ATOM
      1 C1          32.9310     7.1200    12.8740 c3         1 W3W       0.167000
      2 C2          33.0000     6.2380    14.1220 ca         1 W3W      -0.102300
      3 C3          32.6690     4.8720    14.0430 ca         1 W3W      -0.084000
      4 C7          33.3910     6.7810    15.3640 ca         1 W3W      -0.105000
      5 C8          33.8640     6.5790    17.8020 cc         1 W3W      -0.167000
      6 C9          34.0220     5.8890    18.9800 cd         1 W3W       0.255900
      7 C10         34.4990     7.9620    19.4130 cc         1 W3W       0.398400
      8 C11         32.5140     9.5860    13.3410 cc         1 W3W       0.017600
      9 C12         31.6660    10.6460    13.6190 cd         1 W3W      -0.247400
     10 C13         30.1920    10.3980    13.5620 c          1 W3W       0.595200
     11 C14         30.6440     8.0380    13.1040 c          1 W3W       0.613000
     12 C15         32.2230    12.0100    13.8360 ca         1 W3W       0.036200
     13 C16         33.4900    12.3590    13.3100 ca         1 W3W      -0.161000
     14 C19         32.0820    14.2650    14.7900 ca         1 W3W       0.201500
     15 C20         31.5330    12.9900    14.5870 ca         1 W3W      -0.161000
     16 N           34.4180     6.7620    19.9780 nd         1 W3W      -0.671000
     17 C           34.3610     7.4450    12.3800 c3         1 W3W      -0.109100
     18 O           29.3230    11.2440    13.6830 o          1 W3W      -0.515000
     19 N1          34.1690     7.8930    18.0800 na         1 W3W      -0.294500
     20 O1          30.1540     6.9370    12.9130 o          1 W3W      -0.535000
     21 N2          32.0290     8.2950    13.0810 n          1 W3W      -0.304000
     22 N3          29.8450     9.1070    13.3320 ns         1 W3W      -0.470500
     23 C4          32.7290     4.0650    15.1890 ca         1 W3W      -0.101000
     24 C5          33.1200     4.6130    16.4220 ca         1 W3W      -0.085000
     25 C6          33.4560     5.9810    16.5240 ca         1 W3W       0.005000
     26 C17         34.0300    13.6390    13.5160 ca         1 W3W       0.201500
     27 C18         33.3300    14.5970    14.2540 ca         1 W3W      -0.196000
     28 F           31.4040    15.1780    15.5190 f          1 W3W      -0.170500
     29 F1          35.2350    13.9500    12.9910 f          1 W3W      -0.170500
     30 H1          32.4810     6.5230    12.0690 h1         1 W3W       0.089700
     31 H2          32.3620     4.4350    13.0950 ha         1 W3W       0.120000
     32 H3          33.6450     7.8350    15.4220 ha         1 W3W       0.102000
     33 H4          33.8820     4.8340    19.1770 h4         1 W3W       0.039100
     34 H5          34.7820     8.8890    19.8970 h5         1 W3W       0.058100
     35 H6          33.5940     9.6470    13.3510 h4         1 W3W       0.213000
     36 H7          34.0610    11.6620    12.7070 ha         1 W3W       0.139000
     37 H8          30.5810    12.7710    15.0590 ha         1 W3W       0.139000
     38 H10         34.8750     6.5200    12.0920 hc         1 W3W       0.054033
     39 H11         34.3290     8.0990    11.5010 hc         1 W3W       0.054033
     40 H12         34.9620     7.9250    13.1610 hc         1 W3W       0.054033
     41 H13         34.1580     8.6770    17.4410 hn         1 W3W       0.353000
     42 H14         28.8560     8.9200    13.3130 hn         1 W3W       0.347500
     43 H15         32.4710     3.0100    15.1220 ha         1 W3W       0.121000
     44 H16         33.1540     3.9630    17.2910 ha         1 W3W       0.124000
     45 H17         33.7510    15.5850    14.4130 ha         1 W3W       0.152000
@<TRIPOS>BOND
     1     1     2 1   
     2     1    17 1   
     3     1    21 1   
     4     1    30 1   
     5     2     3 ar  
     6     2     4 ar  
     7     3    23 ar  
     8     3    31 1   
     9     4    25 ar  
    10     4    32 1   
    11     5     6 2   
    12     5    19 1   
    13     5    25 1   
    14     6    16 1   
    15     6    33 1   
    16     7    16 2   
    17     7    19 1   
    18     7    34 1   
    19     8     9 2   
    20     8    21 1   
    21     8    35 1   
    22     9    10 1   
    23     9    12 1   
    24    10    18 2   
    25    10    22 1   
    26    11    20 2   
    27    11    21 1   
    28    11    22 1   
    29    12    13 ar  
    30    12    15 ar  
    31    13    26 ar  
    32    13    36 1   
    33    14    15 ar  
    34    14    27 ar  
    35    14    28 1   
    36    15    37 1   
    37    17    38 1   
    38    17    39 1   
    39    17    40 1   
    40    19    41 1   
    41    22    42 1   
    42    23    24 ar  
    43    23    43 1   
    44    24    25 ar  
    45    24    44 1   
    46    26    27 ar  
    47    26    29 1   
    48    27    45 1   
@<TRIPOS>SUBSTRUCTURE
     1 W3W         1 TEMP              0 ****  ****    0 ROOT
