@<TRIPOS>MOLECULE
W3W
   45    48     1     0     0
SMALL
abcg2


@<TRIPOS>ATOM
      1 C1          32.8870     7.1070    12.8560 c3         1 W3W       0.167000
      2 C2          33.0070     6.2490    14.0970 ca         1 W3W      -0.102300
      3 C3          32.9610     4.8650    13.9860 ca         1 W3W      -0.084000
      4 C7          33.2270     6.8260    15.3410 ca         1 W3W      -0.105000
      5 C8          33.6000     6.6440    17.7930 cc         1 W3W      -0.167000
      6 C9          34.1710     6.1480    18.9390 cd         1 W3W       0.255900
      7 C10         33.6100     8.1460    19.3950 cc         1 W3W       0.398400
      8 C11         32.5230     9.5250    13.3190 cc         1 W3W       0.017600
      9 C12         31.7720    10.6010    13.6430 cd         1 W3W      -0.247400
     10 C13         30.3370    10.4230    13.7790 c          1 W3W       0.595200
     11 C14         30.6730     8.0270    13.2350 c          1 W3W       0.613000
     12 C15         32.3860    11.9250    13.8330 ca         1 W3W       0.036200
     13 C16         33.3170    12.3970    12.9080 ca         1 W3W      -0.161000
     14 C19         32.6830    13.9280    15.1010 ca         1 W3W       0.201500
     15 C20         32.0630    12.7060    14.9440 ca         1 W3W      -0.161000
     16 N           34.1730     7.0890    19.9240 nd         1 W3W      -0.671000
     17 C           34.2590     7.4870    12.3200 c3         1 W3W      -0.109100
     18 O           29.5320    11.2890    14.0560 o          1 W3W      -0.515000
     19 N1          33.2540     7.9300    18.1150 na         1 W3W      -0.294500
     20 O1          30.1900     6.9280    13.0810 o          1 W3W      -0.535000
     21 N2          32.0280     8.2770    13.1140 n          1 W3W      -0.304000
     22 N3          29.9160     9.1260    13.5440 ns         1 W3W      -0.470500
     23 C4          33.1330     4.0720    15.1130 ca         1 W3W      -0.101000
     24 C5          33.3330     4.6510    16.3550 ca         1 W3W      -0.085000
     25 C6          33.3820     6.0410    16.4840 ca         1 W3W       0.005000
     26 C17         33.9100    13.6270    13.1190 ca         1 W3W       0.201500
     27 C18         33.6140    14.4230    14.2070 ca         1 W3W      -0.196000
     28 F           32.3780    14.6700    16.1740 f          1 W3W      -0.170500
     29 F1          34.8000    14.0770    12.2260 f          1 W3W      -0.170500
     30 H1          32.3840     6.5280    12.0810 h1         1 W3W       0.089700
     31 H2          32.7860     4.4050    13.0210 ha         1 W3W       0.120000
     32 H3          33.2920     7.9040    15.4250 ha         1 W3W       0.102000
     33 H4          34.5950     5.1670    19.0900 h4         1 W3W       0.039100
     34 H5          33.4340     9.0890    19.8890 h5         1 W3W       0.058100
     35 H6          33.5940     9.6250    13.2230 h4         1 W3W       0.213000
     36 H7          33.5640    11.8250    12.0230 ha         1 W3W       0.139000
     37 H8          31.3580    12.3630    15.6880 ha         1 W3W       0.139000
     38 H10         34.7650     6.5710    12.0200 hc         1 W3W       0.054033
     39 H11         34.1870     8.1280    11.4410 hc         1 W3W       0.054033
     40 H12         34.8880     7.9730    13.0660 hc         1 W3W       0.054033
     41 H13         32.7740     8.5920    17.5250 hn         1 W3W       0.353000
     42 H14         28.9200     8.9550    13.6200 hn         1 W3W       0.347500
     43 H15         33.0900     2.9950    15.0250 ha         1 W3W       0.121000
     44 H16         33.4330     4.0220    17.2300 ha         1 W3W       0.124000
     45 H17         34.0840    15.3870    14.3520 ha         1 W3W       0.152000
@<TRIPOS>BOND
     1     1     2 1   
     2     1    17 1   
     3     1    21 1   
     4     1    30 1   
     5     2     3 ar  
     6     2     4 ar  
     7     3    23 ar  
     8     3    31 1   
     9     4    25 ar  
    10     4    32 1   
    11     5     6 2   
    12     5    19 1   
    13     5    25 1   
    14     6    16 1   
    15     6    33 1   
    16     7    16 2   
    17     7    19 1   
    18     7    34 1   
    19     8     9 2   
    20     8    21 1   
    21     8    35 1   
    22     9    10 1   
    23     9    12 1   
    24    10    18 2   
    25    10    22 1   
    26    11    20 2   
    27    11    21 1   
    28    11    22 1   
    29    12    13 ar  
    30    12    15 ar  
    31    13    26 ar  
    32    13    36 1   
    33    14    15 ar  
    34    14    27 ar  
    35    14    28 1   
    36    15    37 1   
    37    17    38 1   
    38    17    39 1   
    39    17    40 1   
    40    19    41 1   
    41    22    42 1   
    42    23    24 ar  
    43    23    43 1   
    44    24    25 ar  
    45    24    44 1   
    46    26    27 ar  
    47    26    29 1   
    48    27    45 1   
@<TRIPOS>SUBSTRUCTURE
     1 W3W         1 TEMP              0 ****  ****    0 ROOT
