@<TRIPOS>MOLECULE
W3X
   34    35     1     0     0
SMALL
No Charge or Current Charge


@<TRIPOS>ATOM
      1 C18        -19.7570    29.7790    -9.0410 c6         1 W3X       0.041000
      2 C16        -20.8270    31.3170    -7.3570 c2         1 W3X      -0.007000
      3 C17        -20.1350    30.2020    -7.6330 c2         1 W3X      -0.282200
      4 C15        -21.5250    36.8820    -8.4570 ca         1 W3X      -0.066000
      5 C14        -22.0480    38.1420    -8.1180 ca         1 W3X      -0.173000
      6 C04        -20.2620    30.7880   -10.0830 ce         1 W3X      -0.315400
      7 C05        -20.9420    31.8910    -9.6940 c2         1 W3X       0.096000
      8 C09        -21.2060    35.9540    -7.4460 ca         1 W3X      -0.124300
      9 N03        -19.2480    29.4490   -11.8330 nt         1 W3X      -0.612000
     10 N06        -21.2440    32.1910    -8.3620 nh         1 W3X      -0.543200
     11 C02        -19.9750    30.5420   -11.5290 c          1 W3X       0.633300
     12 C08        -20.6460    34.5850    -7.8110 c3         1 W3X      -0.053100
     13 C10        -21.4170    36.2980    -6.0970 ca         1 W3X      -0.066000
     14 C11        -21.9400    37.5590    -5.7610 ca         1 W3X      -0.173000
     15 C12        -22.2550    38.4810    -6.7720 ca         1 W3X       0.142100
     16 O01        -20.3560    31.2800   -12.4210 o          1 W3X      -0.639100
     17 H1         -20.1790    28.7850    -9.2440 hc         1 W3X       0.034700
     18 H2         -18.6630    29.6860    -9.1050 hc         1 W3X       0.034700
     19 H3         -21.0860    31.6020    -6.3330 h4         1 W3X       0.190000
     20 H4         -19.8150    29.5400    -6.8280 ha         1 W3X       0.184000
     21 H5         -21.3700    36.6280    -9.5030 ha         1 W3X       0.113500
     22 H6         -22.2930    38.8560    -8.9000 ha         1 W3X       0.122500
     23 H8         -21.2970    32.6240   -10.4270 h4         1 W3X       0.215000
     24 H10        -22.3470    33.4710    -7.0810 h1         1 W3X       0.060200
     25 H11        -22.4410    33.8880    -8.7900 h1         1 W3X       0.060200
     26 H12        -19.0330    29.2540   -12.7990 hn         1 W3X       0.309500
     27 H13        -18.9280    28.8380   -11.0990 hn         1 W3X       0.309500
     28 H14        -22.8380    39.7660    -5.4790 ho         1 W3X       0.465000
     29 H15        -19.9600    34.2360    -7.0290 hc         1 W3X       0.057200
     30 H16        -20.0520    34.6510    -8.7310 hc         1 W3X       0.057200
     31 H17        -21.1770    35.5880    -5.3070 ha         1 W3X       0.113500
     32 H18        -22.0970    37.8120    -4.7150 ha         1 W3X       0.122500
     33 C07        -21.7580    33.5340    -8.0060 c3         1 W3X       0.225800
     34 O13        -22.7620    39.7050    -6.4550 oh         1 W3X      -0.532100
@<TRIPOS>BOND
     1     1     3 1   
     2     1     6 1   
     3     1    17 1   
     4     1    18 1   
     5     2     3 2   
     6     2    10 1   
     7     2    19 1   
     8     3    20 1   
     9     4     5 ar  
    10     4     8 ar  
    11     4    21 1   
    12     5    15 ar  
    13     5    22 1   
    14     6     7 2   
    15     6    11 1   
    16     7    10 1   
    17     7    23 1   
    18     8    12 1   
    19     8    13 ar  
    20     9    11 1   
    21     9    26 1   
    22     9    27 1   
    23    10    33 1   
    24    11    16 2   
    25    12    29 1   
    26    12    30 1   
    27    12    33 1   
    28    13    14 ar  
    29    13    31 1   
    30    14    15 ar  
    31    14    32 1   
    32    15    34 1   
    33    24    33 1   
    34    25    33 1   
    35    28    34 1   
@<TRIPOS>SUBSTRUCTURE
     1 W3X         1 TEMP              0 ****  ****    0 ROOT
