@<TRIPOS>MOLECULE
W3X
   34    35     1     0     0
SMALL
abcg2


@<TRIPOS>ATOM
      1 C18        -19.7700    29.7910    -9.0230 c6         1 W3X       0.041000
      2 C16        -20.7590    31.3990    -7.3950 c2         1 W3X      -0.007000
      3 C17        -20.1210    30.2570    -7.6390 c2         1 W3X      -0.282200
      4 C15        -21.4800    36.8470    -8.4070 ca         1 W3X      -0.066000
      5 C14        -22.0550    38.0700    -8.1010 ca         1 W3X      -0.173000
      6 C04        -20.2430    30.7960   -10.0490 ce         1 W3X      -0.315400
      7 C05        -20.8770    31.9300    -9.6850 c2         1 W3X       0.096000
      8 C09        -21.1400    35.9300    -7.4130 ca         1 W3X      -0.124300
      9 N03        -19.3780    29.4480   -11.8230 nt         1 W3X      -0.612000
     10 N06        -21.1740    32.2610    -8.4030 nh         1 W3X      -0.543200
     11 C02        -20.0310    30.5820   -11.4910 c          1 W3X       0.633300
     12 C08        -20.5690    34.5870    -7.7630 c3         1 W3X      -0.053100
     13 C10        -21.4010    36.2820    -6.0930 ca         1 W3X      -0.066000
     14 C11        -21.9740    37.5030    -5.7670 ca         1 W3X      -0.173000
     15 C12        -22.3080    38.4050    -6.7730 ca         1 W3X       0.142100
     16 O01        -20.4130    31.3740   -12.3520 o          1 W3X      -0.639100
     17 H1         -20.2150    28.8020    -9.2030 hc         1 W3X       0.034700
     18 H2         -18.6860    29.6290    -9.0960 hc         1 W3X       0.034700
     19 H3         -21.0050    31.7150    -6.3890 h4         1 W3X       0.190000
     20 H4         -19.8490    29.6300    -6.8010 ha         1 W3X       0.184000
     21 H5         -21.2900    36.6030    -9.4460 ha         1 W3X       0.113500
     22 H6         -22.3070    38.7680    -8.8900 ha         1 W3X       0.122500
     23 H8         -21.1960    32.6420   -10.4350 h4         1 W3X       0.215000
     24 H10        -22.3450    33.4850    -7.2090 h1         1 W3X       0.060200
     25 H11        -22.2850    33.9320    -8.9040 h1         1 W3X       0.060200
     26 H12        -19.2120    29.2350   -12.7920 hn         1 W3X       0.309500
     27 H13        -19.0710    28.7720   -11.1470 hn         1 W3X       0.309500
     28 H14        -23.0000    39.7240    -5.5730 ho         1 W3X       0.465000
     29 H15        -19.9600    34.2090    -6.9380 hc         1 W3X       0.057200
     30 H16        -19.9120    34.6670    -8.6340 hc         1 W3X       0.057200
     31 H17        -21.1460    35.5930    -5.2960 ha         1 W3X       0.113500
     32 H18        -22.1600    37.7510    -4.7270 ha         1 W3X       0.122500
     33 C07        -21.6790    33.5770    -8.0690 c3         1 W3X       0.225800
     34 O13        -22.8710    39.6060    -6.5210 oh         1 W3X      -0.532100
@<TRIPOS>BOND
     1     1     3 1   
     2     1     6 1   
     3     1    17 1   
     4     1    18 1   
     5     2     3 2   
     6     2    10 1   
     7     2    19 1   
     8     3    20 1   
     9     4     5 ar  
    10     4     8 ar  
    11     4    21 1   
    12     5    15 ar  
    13     5    22 1   
    14     6     7 2   
    15     6    11 1   
    16     7    10 1   
    17     7    23 1   
    18     8    12 1   
    19     8    13 ar  
    20     9    11 1   
    21     9    26 1   
    22     9    27 1   
    23    10    33 1   
    24    11    16 2   
    25    12    29 1   
    26    12    30 1   
    27    12    33 1   
    28    13    14 ar  
    29    13    31 1   
    30    14    15 ar  
    31    14    32 1   
    32    15    34 1   
    33    24    33 1   
    34    25    33 1   
    35    28    34 1   
@<TRIPOS>SUBSTRUCTURE
     1 W3X         1 TEMP              0 ****  ****    0 ROOT
