@<TRIPOS>MOLECULE
W3Y
   24    25     1     0     0
SMALL
abcg2


@<TRIPOS>ATOM
      1 N1           0.5270    12.8860    -1.6360 ns         1 W3Y      -0.479500
      2 C4          -0.6190    11.4050    -4.6660 ca         1 W3Y      -0.015000
      3 C5          -0.1750    11.6940    -5.9540 ca         1 W3Y      -0.118500
      4 C6          -0.5620    10.9080    -7.0270 ca         1 W3Y      -0.085000
      5 C7          -1.3880     9.8180    -6.8080 ca         1 W3Y       0.107000
      6 C8          -1.8410     9.5180    -5.5340 ca         1 W3Y      -0.085000
      7 CL          -1.8670     8.8230    -8.1440 cl         1 W3Y      -0.197000
      8 C9          -1.4670    10.3170    -4.4660 ca         1 W3Y      -0.118500
      9 N           -0.2320    12.2280    -3.5980 n          1 W3Y      -0.246400
     10 C2           0.1570    11.7700    -2.3730 c          1 W3Y       0.623000
     11 O            0.1910    10.6290    -1.9790 o          1 W3Y      -0.527000
     12 C3           0.4170    14.0480    -2.3320 c          1 W3Y       0.564000
     13 O1           0.6560    15.1610    -1.9330 o          1 W3Y      -0.496000
     14 C1          -0.0740    13.6690    -3.7160 c5         1 W3Y       0.022700
     15 C           -1.3580    14.3920    -4.0870 c3         1 W3Y      -0.095100
     16 H1           0.8370    12.8210    -0.6760 hn         1 W3Y       0.359500
     17 H2           0.4830    12.5330    -6.1370 ha         1 W3Y       0.129500
     18 H3          -0.2100    11.1450    -8.0220 ha         1 W3Y       0.133500
     19 H4          -2.4970     8.6730    -5.3680 ha         1 W3Y       0.133500
     20 H5          -1.8510    10.0900    -3.4830 ha         1 W3Y       0.129500
     21 H6           0.7180    13.9160    -4.4300 h1         1 W3Y       0.085700
     22 H7          -1.1820    15.4650    -4.1130 hc         1 W3Y       0.057700
     23 H8          -1.7000    14.0890    -5.0760 hc         1 W3Y       0.057700
     24 H9          -2.1480    14.1820    -3.3660 hc         1 W3Y       0.057700
@<TRIPOS>BOND
     1     1    10 1   
     2     1    12 1   
     3     1    16 1   
     4     2     3 ar  
     5     2     8 ar  
     6     2     9 1   
     7     3     4 ar  
     8     3    17 1   
     9     4     5 ar  
    10     4    18 1   
    11     5     6 ar  
    12     5     7 1   
    13     6     8 ar  
    14     6    19 1   
    15     8    20 1   
    16     9    10 1   
    17     9    14 1   
    18    10    11 2   
    19    12    13 2   
    20    12    14 1   
    21    14    15 1   
    22    14    21 1   
    23    15    22 1   
    24    15    23 1   
    25    15    24 1   
@<TRIPOS>SUBSTRUCTURE
     1 W3Y         1 TEMP              0 ****  ****    0 ROOT
