@<TRIPOS>MOLECULE
W3Y
   24    25     1     0     0
SMALL
No Charge or Current Charge


@<TRIPOS>ATOM
      1 N1           0.4680    12.8880    -1.6330 ns         1 W3Y      -0.479500
      2 C4          -0.7520    11.4430    -4.7040 ca         1 W3Y      -0.015000
      3 C5          -0.3150    11.7340    -6.0150 ca         1 W3Y      -0.118500
      4 C6          -0.6490    10.8920    -7.0910 ca         1 W3Y      -0.085000
      5 C7          -1.3860     9.7210    -6.8620 ca         1 W3Y       0.107000
      6 C8          -1.7690     9.3820    -5.5570 ca         1 W3Y      -0.085000
      7 Cl          -1.8000     8.6640    -8.2060 cl         1 W3Y      -0.197000
      8 C9          -1.4330    10.2250    -4.4820 ca         1 W3Y      -0.118500
      9 N           -0.2680    12.2430    -3.6040 n          1 W3Y      -0.246400
     10 C2           0.0610    11.7990    -2.3140 c          1 W3Y       0.623000
     11 O            0.0220    10.6650    -1.8680 o          1 W3Y      -0.527000
     12 C3           0.4890    14.0820    -2.2730 c          1 W3Y       0.564000
     13 O1           0.8230    15.1520    -1.7880 o          1 W3Y      -0.496000
     14 C1          -0.0190    13.7100    -3.6910 c5         1 W3Y       0.022700
     15 C           -1.2840    14.5150    -4.0760 c3         1 W3Y      -0.095100
     16 H1           0.7580    12.8110    -0.6700 hn         1 W3Y       0.359500
     17 H2           0.2850    12.6190    -6.2130 ha         1 W3Y       0.129500
     18 H3          -0.3260    11.1410    -8.0990 ha         1 W3Y       0.133500
     19 H4          -2.3210     8.4630    -5.3760 ha         1 W3Y       0.133500
     20 H5          -1.7400     9.9360    -3.4810 ha         1 W3Y       0.129500
     21 H6           0.7920    13.9300    -4.3960 h1         1 W3Y       0.085700
     22 H7          -1.0800    15.5930    -4.0760 hc         1 W3Y       0.057700
     23 H8          -1.6370    14.2440    -5.0780 hc         1 W3Y       0.057700
     24 H9          -2.1030    14.3280    -3.3700 hc         1 W3Y       0.057700
@<TRIPOS>BOND
     1     1    10 1   
     2     1    12 1   
     3     1    16 1   
     4     2     3 ar  
     5     2     8 ar  
     6     2     9 1   
     7     3     4 ar  
     8     3    17 1   
     9     4     5 ar  
    10     4    18 1   
    11     5     6 ar  
    12     5     7 1   
    13     6     8 ar  
    14     6    19 1   
    15     8    20 1   
    16     9    10 1   
    17     9    14 1   
    18    10    11 2   
    19    12    13 2   
    20    12    14 1   
    21    14    15 1   
    22    14    21 1   
    23    15    22 1   
    24    15    23 1   
    25    15    24 1   
@<TRIPOS>SUBSTRUCTURE
     1 W3Y         1 TEMP              0 ****  ****    0 ROOT
