@<TRIPOS>MOLECULE
W3Z
   32    32     1     0     0
SMALL
No Charge or Current Charge


@<TRIPOS>ATOM
      1 C7          -1.8600    14.3330   -36.1970 c6         1 W3Z       0.232800
      2 C8          -2.5030    10.8920   -37.0140 c3         1 W3Z      -0.374100
      3 O1           0.3790    16.2020   -37.2480 o          1 W3Z      -0.485000
      4 C1          -0.2020    16.7590   -39.8690 c3         1 W3Z       0.166600
      5 C5           0.4480    13.0160   -35.3160 c6         1 W3Z      -0.097400
      6 C6          -0.9000    12.5890   -34.6650 c6         1 W3Z       0.231800
      7 C4           0.3480    13.0880   -36.8580 c6         1 W3Z      -0.062400
      8 C3          -0.7810    14.0760   -37.2760 c6         1 W3Z      -0.150700
      9 O3          -3.7020    11.2600   -34.6570 o          1 W3Z      -0.535500
     10 C2          -0.2710    15.3880   -37.8890 c          1 W3Z       0.599100
     11 O2          -4.3260    12.7630   -36.5890 o          1 W3Z      -0.535500
     12 N           -2.1020    13.1200   -35.3730 n3         1 W3Z      -0.791500
     13 O           -0.6280    15.5590   -39.2020 os         1 W3Z      -0.451100
     14 C           -0.7290    16.6950   -41.3110 c3         1 W3Z      -0.098100
     15 H1          -1.4990    15.1370   -35.5380 h1         1 W3Z       0.084700
     16 H2          -2.7800    14.7200   -36.6610 h1         1 W3Z       0.084700
     17 H3          -1.6590    10.4220   -36.5000 h1         1 W3Z       0.098700
     18 H4          -3.2420    10.1440   -37.3170 h1         1 W3Z       0.098700
     19 H5          -2.1730    11.4840   -37.8720 h1         1 W3Z       0.098700
     20 H6           0.8940    16.8330   -39.8820 h1         1 W3Z       0.050200
     21 H7          -0.6070    17.6500   -39.3700 h1         1 W3Z       0.050200
     22 H8           1.2410    12.3190   -35.0160 hc         1 W3Z       0.059200
     23 H9           0.7420    14.0010   -34.9260 hc         1 W3Z       0.059200
     24 H10         -0.9050    12.9240   -33.6170 h1         1 W3Z       0.053700
     25 H11         -0.9290    11.4900   -34.6290 h1         1 W3Z       0.053700
     26 H12          0.1390    12.0840   -37.2540 hc         1 W3Z       0.051200
     27 H13          1.3120    13.3900   -37.2890 hc         1 W3Z       0.051200
     28 H14         -1.3060    13.5840   -38.1050 hc         1 W3Z       0.076700
     29 H15         -0.4290    17.5930   -41.8640 hc         1 W3Z       0.048033
     30 H16         -0.3250    15.8190   -41.8320 hc         1 W3Z       0.048033
     31 H17         -1.8240    16.6350   -41.3200 hc         1 W3Z       0.048033
     32 S           -3.3100    11.9940   -35.8640 s6         1 W3Z       1.235100
@<TRIPOS>BOND
     1     1     8 1   
     2     1    12 1   
     3     1    15 1   
     4     1    16 1   
     5     2    17 1   
     6     2    18 1   
     7     2    19 1   
     8     2    32 1   
     9     3    10 2   
    10     4    13 1   
    11     4    14 1   
    12     4    20 1   
    13     4    21 1   
    14     5     6 1   
    15     5     7 1   
    16     5    22 1   
    17     5    23 1   
    18     6    12 1   
    19     6    24 1   
    20     6    25 1   
    21     7     8 1   
    22     7    26 1   
    23     7    27 1   
    24     8    10 1   
    25     8    28 1   
    26     9    32 2   
    27    10    13 1   
    28    11    32 2   
    29    12    32 1   
    30    14    29 1   
    31    14    30 1   
    32    14    31 1   
@<TRIPOS>SUBSTRUCTURE
     1 W3Z         1 TEMP              0 ****  ****    0 ROOT
