@<TRIPOS>MOLECULE
W3Z
   32    32     1     0     0
SMALL
abcg2


@<TRIPOS>ATOM
      1 C7          -1.9890    14.2330   -36.1210 c6         1 W3Z       0.232800
      2 C8          -2.8800    10.7880   -36.7880 c3         1 W3Z      -0.374100
      3 O1          -0.5620    16.4850   -37.1450 o          1 W3Z      -0.485000
      4 C1          -0.0990    16.7970   -39.7700 c3         1 W3Z       0.166600
      5 C5           0.4740    13.2090   -35.7300 c6         1 W3Z      -0.097400
      6 C6          -0.6330    12.5410   -34.9150 c6         1 W3Z       0.231800
      7 C4           0.0880    13.2760   -37.1990 c6         1 W3Z      -0.062400
      8 C3          -1.1680    14.1620   -37.4120 c6         1 W3Z      -0.150700
      9 O3          -3.1220    11.1320   -34.2040 o          1 W3Z      -0.535500
     10 C2          -0.7520    15.5390   -37.8700 c          1 W3Z       0.599100
     11 O2          -4.4000    12.6520   -35.7420 o          1 W3Z      -0.535500
     12 N           -1.9420    12.9630   -35.4200 n3         1 W3Z      -0.791500
     13 O           -0.5730    15.5750   -39.1830 os         1 W3Z      -0.451100
     14 C            0.0350    16.5700   -41.2560 c3         1 W3Z      -0.098100
     15 H1          -1.5960    14.9990   -35.4500 h1         1 W3Z       0.084700
     16 H2          -3.0210    14.5030   -36.3310 h1         1 W3Z       0.084700
     17 H3          -1.9060    10.3200   -36.6640 h1         1 W3Z       0.098700
     18 H4          -3.6550    10.0230   -36.7870 h1         1 W3Z       0.098700
     19 H5          -2.9080    11.3460   -37.7220 h1         1 W3Z       0.098700
     20 H6           0.8620    17.0680   -39.3280 h1         1 W3Z       0.050200
     21 H7          -0.8050    17.6030   -39.5600 h1         1 W3Z       0.050200
     22 H8           1.3900    12.6290   -35.6060 hc         1 W3Z       0.059200
     23 H9           0.6890    14.2080   -35.3460 hc         1 W3Z       0.059200
     24 H10         -0.5400    12.7870   -33.8540 h1         1 W3Z       0.053700
     25 H11         -0.5340    11.4580   -35.0050 h1         1 W3Z       0.053700
     26 H12         -0.1270    12.2680   -37.5620 hc         1 W3Z       0.051200
     27 H13          0.9270    13.6330   -37.8000 hc         1 W3Z       0.051200
     28 H14         -1.7740    13.7130   -38.2020 hc         1 W3Z       0.076700
     29 H15          0.3790    17.4890   -41.7280 hc         1 W3Z       0.048033
     30 H16          0.7600    15.7870   -41.4780 hc         1 W3Z       0.048033
     31 H17         -0.9200    16.3000   -41.7080 hc         1 W3Z       0.048033
     32 S           -3.1870    11.9070   -35.4350 s6         1 W3Z       1.235100
@<TRIPOS>BOND
     1     1     8 1   
     2     1    12 1   
     3     1    15 1   
     4     1    16 1   
     5     2    17 1   
     6     2    18 1   
     7     2    19 1   
     8     2    32 1   
     9     3    10 2   
    10     4    13 1   
    11     4    14 1   
    12     4    20 1   
    13     4    21 1   
    14     5     6 1   
    15     5     7 1   
    16     5    22 1   
    17     5    23 1   
    18     6    12 1   
    19     6    24 1   
    20     6    25 1   
    21     7     8 1   
    22     7    26 1   
    23     7    27 1   
    24     8    10 1   
    25     8    28 1   
    26     9    32 2   
    27    10    13 1   
    28    11    32 2   
    29    12    32 1   
    30    14    29 1   
    31    14    30 1   
    32    14    31 1   
@<TRIPOS>SUBSTRUCTURE
     1 W3Z         1 TEMP              0 ****  ****    0 ROOT
