@<TRIPOS>MOLECULE
W40
   38    40     1     0     0
SMALL
No Charge or Current Charge


@<TRIPOS>ATOM
      1 C1         -13.5320     5.7470     1.5290 c3         1 W40       0.163000
      2 C2         -13.7070     5.8020     3.0480 ca         1 W40      -0.105300
      3 C3         -13.4000     6.9780     3.7640 ca         1 W40      -0.099500
      4 C7         -14.1810     4.6740     3.7490 ca         1 W40      -0.099500
      5 C8         -13.7660     7.9970     0.3650 cc         1 W40       0.021600
      6 C9         -14.5350     9.0050    -0.1940 cd         1 W40      -0.237400
      7 C10        -16.0030     8.7640    -0.3450 c          1 W40       0.590200
      8 C11        -15.7280     6.6070     0.7760 c          1 W40       0.610000
      9 C12        -13.8810    10.2270    -0.7400 ca         1 W40       0.036200
     10 C13        -14.5700    11.4580    -0.8520 ca         1 W40      -0.158500
     11 C14        -13.9310    12.6000    -1.3580 ca         1 W40       0.197000
     12 C15        -12.5930    12.5500    -1.7600 ca         1 W40      -0.188000
     13 C16        -11.8940    11.3440    -1.6470 ca         1 W40       0.197000
     14 N          -14.3350     6.8060     0.8420 n          1 W40      -0.304000
     15 C          -12.0260     5.7060     1.1720 c3         1 W40      -0.099100
     16 O          -16.7930     9.5060    -0.9030 o          1 W40      -0.521000
     17 N1         -16.4410     7.5930     0.1830 ns         1 W40      -0.464500
     18 O1         -16.2930     5.6100     1.1960 o          1 W40      -0.541000
     19 C4         -13.5640     7.0240     5.1600 ca         1 W40      -0.104000
     20 C5         -14.0360     5.8950     5.8500 ca         1 W40      -0.102000
     21 C6         -14.3450     4.7210     5.1440 ca         1 W40      -0.104000
     22 C17        -12.5240    10.1970    -1.1400 ca         1 W40      -0.158500
     23 F          -10.6020    11.2830    -2.0360 f          1 W40      -0.175500
     24 F1         -14.6110    13.7640    -1.4470 f          1 W40      -0.175500
     25 H1         -13.9310     4.7830     1.1830 h1         1 W40       0.095700
     26 H2         -13.0350     7.8590     3.2420 ha         1 W40       0.110500
     27 H3         -14.4250     3.7590     3.2140 ha         1 W40       0.110500
     28 H4         -12.6980     8.0590     0.5250 h4         1 W40       0.214000
     29 H5         -15.5960    11.5620    -0.5170 ha         1 W40       0.139000
     30 H6         -12.1020    13.4360    -2.1510 ha         1 W40       0.151000
     31 H7         -11.5710     4.7950     1.5790 hc         1 W40       0.053367
     32 H8         -11.8850     5.6940     0.0840 hc         1 W40       0.053367
     33 H9         -11.4830     6.5600     1.5930 hc         1 W40       0.053367
     34 H10        -17.4310     7.4270     0.1090 hn         1 W40       0.347500
     35 H11        -13.3260     7.9340     5.7050 ha         1 W40       0.117000
     36 H12        -14.1630     5.9310     6.9300 ha         1 W40       0.118000
     37 H13        -14.7110     3.8470     5.6780 ha         1 W40       0.117000
     38 H14        -11.9450     9.2800    -1.0990 ha         1 W40       0.139000
@<TRIPOS>BOND
     1     1     2 1   
     2     1    14 1   
     3     1    15 1   
     4     1    25 1   
     5     2     3 ar  
     6     2     4 ar  
     7     3    19 ar  
     8     3    26 1   
     9     4    21 ar  
    10     4    27 1   
    11     5     6 2   
    12     5    14 1   
    13     5    28 1   
    14     6     7 1   
    15     6     9 1   
    16     7    16 2   
    17     7    17 1   
    18     8    14 1   
    19     8    17 1   
    20     8    18 2   
    21     9    10 ar  
    22     9    22 ar  
    23    10    11 ar  
    24    10    29 1   
    25    11    12 ar  
    26    11    24 1   
    27    12    13 ar  
    28    12    30 1   
    29    13    22 ar  
    30    13    23 1   
    31    15    31 1   
    32    15    32 1   
    33    15    33 1   
    34    17    34 1   
    35    19    20 ar  
    36    19    35 1   
    37    20    21 ar  
    38    20    36 1   
    39    21    37 1   
    40    22    38 1   
@<TRIPOS>SUBSTRUCTURE
     1 W40         1 TEMP              0 ****  ****    0 ROOT
