@<TRIPOS>MOLECULE
W40
   38    40     1     0     0
SMALL
abcg2


@<TRIPOS>ATOM
      1 C1         -13.7480     5.6810     1.4990 c3         1 W40       0.163000
      2 C2         -13.8620     5.8860     3.0020 ca         1 W40      -0.105300
      3 C3         -14.0270     7.1420     3.5840 ca         1 W40      -0.099500
      4 C7         -13.6010     4.7990     3.8380 ca         1 W40      -0.099500
      5 C8         -13.8780     7.8750     0.3170 cc         1 W40       0.021600
      6 C9         -14.5080     8.8730    -0.3540 cd         1 W40      -0.237400
      7 C10        -15.9500     8.7660    -0.5340 c          1 W40       0.590200
      8 C11        -15.8550     6.5740     0.6360 c          1 W40       0.610000
      9 C12        -13.7980    10.1190    -0.6880 ca         1 W40       0.036200
     10 C13        -14.3420    11.3800    -0.4290 ca         1 W40      -0.158500
     11 C14        -13.6460    12.5140    -0.8080 ca         1 W40       0.197000
     12 C15        -12.3760    12.4700    -1.3570 ca         1 W40      -0.188000
     13 C16        -11.9020    11.2040    -1.6810 ca         1 W40       0.197000
     14 N          -14.4820     6.7410     0.7620 n          1 W40      -0.304000
     15 C          -12.2950     5.5560     1.0480 c3         1 W40      -0.099100
     16 O          -16.6690     9.5560    -1.1370 o          1 W40      -0.521000
     17 N1         -16.4880     7.5740    -0.0590 ns         1 W40      -0.464500
     18 O1         -16.4570     5.6220     1.1080 o          1 W40      -0.541000
     19 C4         -14.0130     7.2870     4.9680 ca         1 W40      -0.104000
     20 C5         -13.8320     6.1810     5.7960 ca         1 W40      -0.102000
     21 C6         -13.6100     4.9290     5.2220 ca         1 W40      -0.104000
     22 C17        -12.5240    10.0410    -1.2760 ca         1 W40      -0.158500
     23 F          -10.6560    11.1250    -2.2140 f          1 W40      -0.175500
     24 F1         -14.1940    13.7160    -0.5380 f          1 W40      -0.175500
     25 H1         -14.2890     4.7660     1.2690 h1         1 W40       0.095700
     26 H2         -14.2860     7.9910     2.9660 ha         1 W40       0.110500
     27 H3         -13.3870     3.8300     3.3910 ha         1 W40       0.110500
     28 H4         -12.8340     7.9920     0.5560 h4         1 W40       0.214000
     29 H5         -15.3100    11.4950     0.0370 ha         1 W40       0.139000
     30 H6         -11.9260    13.3680    -1.7580 ha         1 W40       0.151000
     31 H7         -11.8460     4.7210     1.5770 hc         1 W40       0.053367
     32 H8         -12.2590     5.3580    -0.0250 hc         1 W40       0.053367
     33 H9         -11.7300     6.4670     1.2350 hc         1 W40       0.053367
     34 H10        -17.4880     7.4610    -0.1730 hn         1 W40       0.347500
     35 H11        -14.2380     8.2600     5.3850 ha         1 W40       0.117000
     36 H12        -13.7990     6.3060     6.8720 ha         1 W40       0.118000
     37 H13        -13.4000     4.0860     5.8700 ha         1 W40       0.117000
     38 H14        -12.0890     9.0730    -1.4780 ha         1 W40       0.139000
@<TRIPOS>BOND
     1     1     2 1   
     2     1    14 1   
     3     1    15 1   
     4     1    25 1   
     5     2     3 ar  
     6     2     4 ar  
     7     3    19 ar  
     8     3    26 1   
     9     4    21 ar  
    10     4    27 1   
    11     5     6 2   
    12     5    14 1   
    13     5    28 1   
    14     6     7 1   
    15     6     9 1   
    16     7    16 2   
    17     7    17 1   
    18     8    14 1   
    19     8    17 1   
    20     8    18 2   
    21     9    10 ar  
    22     9    22 ar  
    23    10    11 ar  
    24    10    29 1   
    25    11    12 ar  
    26    11    24 1   
    27    12    13 ar  
    28    12    30 1   
    29    13    22 ar  
    30    13    23 1   
    31    15    31 1   
    32    15    32 1   
    33    15    33 1   
    34    17    34 1   
    35    19    20 ar  
    36    19    35 1   
    37    20    21 ar  
    38    20    36 1   
    39    21    37 1   
    40    22    38 1   
@<TRIPOS>SUBSTRUCTURE
     1 W40         1 TEMP              0 ****  ****    0 ROOT
