@<TRIPOS>MOLECULE
W41
   12    13     1     0     0
SMALL
bcc


@<TRIPOS>ATOM
      1 N1          -3.2780    14.9060    -1.9150 nc         1 W41      -0.025000
      2 N3          -5.0170    14.8230    -0.7910 na         1 W41       0.325500
      3 CL          -8.2000    14.6760     1.2120 cl         1 W41      -0.098000
      4 C           -6.5510    14.7320     0.7660 cc         1 W41       0.460300
      5 N4          -6.3050    14.7830    -0.5010 nd         1 W41      -0.409800
      6 N2          -4.5550    14.8800    -2.0290 nd         1 W41      -0.173400
      7 N           -2.8730    14.8680    -0.6570 nc         1 W41      -0.085000
      8 C3          -3.9730    14.8150     0.0700 cd         1 W41      -0.100300
      9 C2          -4.2570    14.7590     1.4500 cd         1 W41      -0.035000
     10 C1          -5.5670    14.7170     1.7980 cc         1 W41      -0.216300
     11 H1          -3.4590    14.7510     2.1770 ha         1 W41       0.182000
     12 H2          -5.8770    14.6720     2.8310 ha         1 W41       0.175000
@<TRIPOS>BOND
     1     1     6 2   
     2     1     7 1   
     3     2     5 1   
     4     2     6 1   
     5     2     8 1   
     6     3     4 1   
     7     4     5 2   
     8     4    10 1   
     9     7     8 2   
    10     8     9 1   
    11     9    10 2   
    12     9    11 1   
    13    10    12 1   
@<TRIPOS>SUBSTRUCTURE
     1 W41         1 TEMP              0 ****  ****    0 ROOT
