@<TRIPOS>MOLECULE
W41
   12    13     1     0     0
SMALL
No Charge or Current Charge


@<TRIPOS>ATOM
      1 N1          -3.2250    14.9070    -1.9250 nc         1 W41      -0.025000
      2 N3          -5.0160    14.8260    -0.8570 na         1 W41       0.376200
      3 Cl          -8.2120    14.6730     1.3120 cl         1 W41      -0.098000
      4 C           -6.5660    14.7310     0.7610 cc         1 W41       0.395000
      5 N4          -6.3650    14.7840    -0.5590 nd         1 W41      -0.409800
      6 N2          -4.5290    14.8830    -2.1090 nd         1 W41      -0.173400
      7 N           -2.8650    14.8660    -0.5810 nc         1 W41      -0.085000
      8 C3          -4.0090    14.8160     0.0610 cd         1 W41      -0.151000
      9 C2          -4.2370    14.7590     1.4650 cd         1 W41      -0.017000
     10 C1          -5.5680    14.7160     1.8020 cc         1 W41      -0.133000
     11 H1          -3.4370    14.7510     2.2000 ha         1 W41       0.164000
     12 H2          -5.8840    14.6710     2.8390 ha         1 W41       0.157000
@<TRIPOS>BOND
     1     1     6 2   
     2     1     7 1   
     3     2     5 1   
     4     2     6 1   
     5     2     8 1   
     6     3     4 1   
     7     4     5 2   
     8     4    10 1   
     9     7     8 2   
    10     8     9 1   
    11     9    10 2   
    12     9    11 1   
    13    10    12 1   
@<TRIPOS>SUBSTRUCTURE
     1 W41         1 TEMP              0 ****  ****    0 ROOT
