@<TRIPOS>MOLECULE
W42
   57    59     1     0     0
SMALL
bcc


@<TRIPOS>ATOM
      1 O1D          1.4080     1.7880   -11.3830 oh         1 W42      -0.585800
      2 C2D          2.5660     1.0420   -11.0870 c3         1 W42       0.138400
      3 C3D          2.3930     0.3490    -9.7610 c3         1 W42       0.134400
      4 O4D          1.3670    -0.6200    -9.8660 os         1 W42      -0.424600
      5 C5D          1.2800    -1.4900    -8.7890 c3         1 W42       0.327200
      6 O6D          0.8380    -0.8820    -7.6120 os         1 W42      -0.433600
      7 O1          -1.8870     0.7730    -4.6220 os         1 W42      -0.119100
      8 N2          -1.5400     0.9280    -5.9310 nc         1 W42      -0.355300
      9 C3          -0.9590    -0.1800    -6.2840 cd         1 W42       0.335600
     10 C31         -0.4800    -0.3850    -7.6790 c3         1 W42       0.099100
     11 C4          -0.8990    -1.0950    -5.2020 cd         1 W42      -0.375600
     12 C5          -1.5040    -0.4340    -4.1870 cc         1 W42       0.285000
     13 C1C         -1.7780    -0.7810    -2.7710 c3         1 W42      -0.115700
     14 C2C         -0.9540     0.0420    -1.7780 c3         1 W42      -0.073400
     15 C3C         -1.2580    -0.3460    -0.3370 c3         1 W42      -0.074400
     16 C4C         -0.4300     0.4550     0.6610 c3         1 W42      -0.081400
     17 C5C         -0.7460     0.0570     2.0850 c3         1 W42       0.145400
     18 O1B          0.0530     0.8680     2.9640 os         1 W42      -0.325900
     19 C1B          0.0740     0.4860     4.2480 ca         1 W42       0.144100
     20 C2B          1.0190    -0.4270     4.7130 ca         1 W42      -0.008100
     21 C3B          1.0860    -0.7930     6.0450 ca         1 W42      -0.070000
     22 C4B          0.1790    -0.2490     6.9480 ca         1 W42      -0.119900
     23 C5B         -0.7800     0.6600     6.5100 ca         1 W42      -0.070000
     24 C6B         -0.8280     1.0090     5.1750 ca         1 W42      -0.008100
     25 CL1         -2.0010     2.1470     4.6270 cl         1 W42      -0.080400
     26 CL2          2.1490    -1.0810     3.5870 cl         1 W42      -0.080400
     27 C2A          0.2210    -0.6050     8.3710 ce         1 W42       0.635200
     28 N3A         -0.5590    -0.1530     9.2580 n2         1 W42      -0.634900
     29 C4A         -0.1590    -0.7530    10.5220 c5         1 W42       0.070800
     30 C5A          1.0190    -1.6760    10.1570 c5         1 W42       0.093400
     31 O1A          1.1720    -1.4760     8.7400 os         1 W42      -0.430400
     32 HOD1         1.5320     2.2030   -12.2410 ho         1 W42       0.402000
     33 H2D1         2.7800     0.2950   -11.8620 h1         1 W42       0.024200
     34 H2D2         3.4550     1.6820   -11.0070 h1         1 W42       0.024200
     35 H3D1         3.3460    -0.1260    -9.4930 h1         1 W42       0.038700
     36 H3D2         2.1680     1.0870    -8.9820 h1         1 W42       0.038700
     37 H5D1         0.5910    -2.2850    -9.0990 h2         1 W42       0.055700
     38 H5D2         2.2550    -1.9270    -8.5440 h2         1 W42       0.055700
     39 H311        -0.5410     0.5550    -8.2370 h1         1 W42       0.057200
     40 H312        -1.1420    -1.1050    -8.1790 h1         1 W42       0.057200
     41 H4          -0.4780    -2.0860    -5.1890 ha         1 W42       0.173000
     42 H1C1        -2.8440    -0.6490    -2.5650 hc         1 W42       0.062700
     43 H1C2        -1.5610    -1.8430    -2.6420 hc         1 W42       0.062700
     44 H2C1         0.1100    -0.1030    -1.9820 hc         1 W42       0.054700
     45 H2C2        -1.1600     1.1070    -1.9180 hc         1 W42       0.054700
     46 H3C1        -2.3240    -0.1940    -0.1390 hc         1 W42       0.040200
     47 H3C2        -1.0670    -1.4150    -0.2020 hc         1 W42       0.040200
     48 H4C1         0.6350     0.2950     0.4720 hc         1 W42       0.059700
     49 H4C2        -0.6270     1.5220     0.5300 hc         1 W42       0.059700
     50 H5C1        -1.8060     0.2130     2.3080 h1         1 W42       0.038700
     51 H5C2        -0.5190    -1.0010     2.2470 h1         1 W42       0.038700
     52 H3B          1.8410    -1.4970     6.3650 ha         1 W42       0.172000
     53 H5B         -1.4840     1.0870     7.2100 ha         1 W42       0.172000
     54 H4A1         0.1260     0.0250    11.2320 h1         1 W42       0.073700
     55 H4A2        -0.9940    -1.3000    10.9630 h1         1 W42       0.073700
     56 H5A1         1.9520    -1.4050    10.6500 h1         1 W42       0.064700
     57 H5A2         0.8140    -2.7310    10.3400 h1         1 W42       0.064700
@<TRIPOS>BOND
     1     1     2 1   
     2     1    32 1   
     3     2     3 1   
     4     2    33 1   
     5     2    34 1   
     6     3     4 1   
     7     3    35 1   
     8     3    36 1   
     9     4     5 1   
    10     5     6 1   
    11     5    37 1   
    12     5    38 1   
    13     6    10 1   
    14     7     8 1   
    15     7    12 1   
    16     8     9 2   
    17     9    10 1   
    18     9    11 1   
    19    10    39 1   
    20    10    40 1   
    21    11    12 2   
    22    11    41 1   
    23    12    13 1   
    24    13    14 1   
    25    13    42 1   
    26    13    43 1   
    27    14    15 1   
    28    14    44 1   
    29    14    45 1   
    30    15    16 1   
    31    15    46 1   
    32    15    47 1   
    33    16    17 1   
    34    16    48 1   
    35    16    49 1   
    36    17    18 1   
    37    17    50 1   
    38    17    51 1   
    39    18    19 1   
    40    19    20 ar  
    41    19    24 ar  
    42    20    21 ar  
    43    20    26 1   
    44    21    22 ar  
    45    21    52 1   
    46    22    23 ar  
    47    22    27 1   
    48    23    24 ar  
    49    23    53 1   
    50    24    25 1   
    51    27    28 2   
    52    27    31 1   
    53    28    29 1   
    54    29    30 1   
    55    29    54 1   
    56    29    55 1   
    57    30    31 1   
    58    30    56 1   
    59    30    57 1   
@<TRIPOS>SUBSTRUCTURE
     1 W42         1 TEMP              0 ****  ****    0 ROOT
