@<TRIPOS>MOLECULE
W42
   57    59     1     0     0
SMALL
No Charge or Current Charge


@<TRIPOS>ATOM
      1 O1D          1.5650     2.5790   -10.0180 oh         1 W42      -0.708000
      2 C2D          2.7100     1.7050   -10.0680 c3         1 W42       0.161600
      3 C3D          2.4960     0.4290    -9.2100 c3         1 W42       0.157600
      4 O4D          1.4650    -0.3840    -9.8140 os         1 W42      -0.471000
      5 C5D          1.1870    -1.6180    -9.1300 c3         1 W42       0.373600
      6 O6D          0.5890    -1.2880    -7.8630 os         1 W42      -0.480000
      7 O1          -2.2550     0.5730    -4.8750 os         1 W42      -0.074700
      8 N2          -1.9120     0.6960    -6.2740 nc         1 W42      -0.355300
      9 C3          -1.2590    -0.4210    -6.5540 cd         1 W42       0.270300
     10 C31         -0.7260    -0.6910    -7.9450 c3         1 W42       0.122300
     11 C4          -1.1550    -1.2690    -5.4360 cd         1 W42      -0.227000
     12 C5          -1.7750    -0.6280    -4.4130 cc         1 W42       0.175300
     13 C1C         -1.9930    -1.0200    -2.9790 c3         1 W42      -0.115700
     14 C2C         -1.0710    -0.2600    -2.0020 c3         1 W42      -0.073400
     15 C3C         -1.2860    -0.6660    -0.5270 c3         1 W42      -0.074400
     16 C4C         -0.3630     0.0950     0.4500 c3         1 W42      -0.081400
     17 C5C         -0.5780    -0.3120     1.9190 c3         1 W42       0.168600
     18 O1B          0.3290     0.4570     2.7210 os         1 W42      -0.349100
     19 C1B          0.3310     0.2740     4.0860 ca         1 W42       0.144100
     20 C2B          1.1720    -0.6950     4.6700 ca         1 W42       0.083500
     21 C3B          1.1740    -0.8790     6.0640 ca         1 W42      -0.052000
     22 C4B          0.3380    -0.1000     6.8950 ca         1 W42      -0.119900
     23 C5B         -0.4990     0.8720     6.3010 ca         1 W42      -0.052000
     24 C6B         -0.5030     1.0600     4.9080 ca         1 W42       0.083500
     25 Cl1         -1.5610     2.2880     4.2110 cl         1 W42      -0.172000
     26 Cl2          2.2370    -1.6880     3.6730 cl         1 W42      -0.172000
     27 C2A          0.3440    -0.3000     8.3800 ce         1 W42       0.635200
     28 N3A         -0.3790     0.3870     9.2090 n2         1 W42      -0.634900
     29 C4A          0.0380    -0.0560    10.5620 c5         1 W42       0.070800
     30 C5A          0.7420    -1.4000    10.2780 c5         1 W42       0.116600
     31 O1A          1.1920    -1.2410     8.9220 os         1 W42      -0.453600
     32 HOD1         1.7490     3.3260   -10.6340 ho         1 W42       0.501000
     33 H2D1         2.9210     1.4070   -11.1030 h1         1 W42       0.024200
     34 H2D2         3.5970     2.2310    -9.6910 h1         1 W42       0.024200
     35 H3D1         3.4420    -0.1270    -9.1630 h1         1 W42       0.038700
     36 H3D2         2.2240     0.7220    -8.1870 h1         1 W42       0.038700
     37 H5D1         0.5070    -2.2410    -9.7240 h2         1 W42       0.055700
     38 H5D2         2.1100    -2.1910    -8.9810 h2         1 W42       0.055700
     39 H311        -0.6920     0.2540    -8.5030 h1         1 W42       0.057200
     40 H312        -1.4250    -1.3630    -8.4600 h1         1 W42       0.057200
     41 H4          -0.6730    -2.2380    -5.4000 ha         1 W42       0.155000
     42 H1C1        -3.0400    -0.8360    -2.7090 hc         1 W42       0.062700
     43 H1C2        -1.8280    -2.0990    -2.8680 hc         1 W42       0.062700
     44 H2C1        -0.0250    -0.4430    -2.2790 hc         1 W42       0.054700
     45 H2C2        -1.2450     0.8190    -2.1080 hc         1 W42       0.054700
     46 H3C1        -2.3320    -0.4830    -0.2510 hc         1 W42       0.040200
     47 H3C2        -1.1110    -1.7450    -0.4210 hc         1 W42       0.040200
     48 H4C1         0.6840    -0.0900     0.1790 hc         1 W42       0.059700
     49 H4C2        -0.5380     1.1730     0.3500 hc         1 W42       0.059700
     50 H5C1        -1.6180    -0.1120     2.2110 h1         1 W42       0.038700
     51 H5C2        -0.3850    -1.3860     2.0390 h1         1 W42       0.038700
     52 H3B          1.8300    -1.6330     6.4930 ha         1 W42       0.154000
     53 H5B         -1.1500     1.4880     6.9160 ha         1 W42       0.154000
     54 H4A1         0.7290     0.6710    11.0120 h1         1 W42       0.073700
     55 H4A2        -0.8230    -0.1790    11.2330 h1         1 W42       0.073700
     56 H5A1         1.5870    -1.6040    10.9480 h1         1 W42       0.064700
     57 H5A2         0.0320    -2.2380    10.3210 h1         1 W42       0.064700
@<TRIPOS>BOND
     1     1     2 1   
     2     1    32 1   
     3     2     3 1   
     4     2    33 1   
     5     2    34 1   
     6     3     4 1   
     7     3    35 1   
     8     3    36 1   
     9     4     5 1   
    10     5     6 1   
    11     5    37 1   
    12     5    38 1   
    13     6    10 1   
    14     7     8 1   
    15     7    12 1   
    16     8     9 2   
    17     9    10 1   
    18     9    11 1   
    19    10    39 1   
    20    10    40 1   
    21    11    12 2   
    22    11    41 1   
    23    12    13 1   
    24    13    14 1   
    25    13    42 1   
    26    13    43 1   
    27    14    15 1   
    28    14    44 1   
    29    14    45 1   
    30    15    16 1   
    31    15    46 1   
    32    15    47 1   
    33    16    17 1   
    34    16    48 1   
    35    16    49 1   
    36    17    18 1   
    37    17    50 1   
    38    17    51 1   
    39    18    19 1   
    40    19    20 ar  
    41    19    24 ar  
    42    20    21 ar  
    43    20    26 1   
    44    21    22 ar  
    45    21    52 1   
    46    22    23 ar  
    47    22    27 1   
    48    23    24 ar  
    49    23    53 1   
    50    24    25 1   
    51    27    28 2   
    52    27    31 1   
    53    28    29 1   
    54    29    30 1   
    55    29    54 1   
    56    29    55 1   
    57    30    31 1   
    58    30    56 1   
    59    30    57 1   
@<TRIPOS>SUBSTRUCTURE
     1 W42         1 TEMP              0 ****  ****    0 ROOT
