@<TRIPOS>MOLECULE
W43
   54    56     1     0     0
SMALL
No Charge or Current Charge


@<TRIPOS>ATOM
      1 O1           0.0070     1.2570    -9.0280 os         1 W43      -0.076700
      2 N2           0.6420     1.0530   -10.3110 nc         1 W43      -0.366300
      3 C3           0.4950    -0.2380   -10.5470 cd         1 W43       0.279300
      4 C31          1.0290    -0.8570   -11.8070 c3         1 W43      -0.132400
      5 C4          -0.1900    -0.8980    -9.5150 cd         1 W43      -0.251000
      6 C5          -0.4780     0.0500    -8.5860 cc         1 W43       0.185300
      7 C1C         -1.1950    -0.0330    -7.2680 c3         1 W43      -0.116700
      8 C2C         -0.2370     0.0390    -6.0590 c3         1 W43      -0.073400
      9 C3C         -0.9680    -0.0550    -4.7020 c3         1 W43      -0.075400
     10 C4C         -0.0090     0.0170    -3.4930 c3         1 W43      -0.074400
     11 C5C         -0.7400    -0.0760    -2.1360 c3         1 W43      -0.073400
     12 C6C          0.2180    -0.0050    -0.9270 c3         1 W43      -0.082400
     13 C7C         -0.5130    -0.0980     0.4260 c3         1 W43       0.164600
     14 O1B          0.4800    -0.0210     1.4620 os         1 W43      -0.329100
     15 C1B          0.1560    -0.0750     2.8050 ca         1 W43       0.179100
     16 C2B         -1.1780    -0.2110     3.2490 ca         1 W43      -0.215000
     17 C3B         -1.4660    -0.2620     4.6240 ca         1 W43      -0.025000
     18 C4B         -0.4310    -0.1790     5.5800 ca         1 W43      -0.167900
     19 C5B          0.9020    -0.0430     5.1300 ca         1 W43      -0.021000
     20 C6B          1.1930     0.0090     3.7570 ca         1 W43       0.061000
     21 Cl1          2.8740     0.1790     3.2450 cl         1 W43      -0.180000
     22 C2A         -0.7400    -0.2320     7.0420 ce         1 W43       0.647200
     23 N3A          0.1560    -0.1420     7.9760 n2         1 W43      -0.644900
     24 C4A         -0.5960    -0.0880     9.2520 c5         1 W43       0.089500
     25 CM1         -0.6220     1.3660     9.7750 c3         1 W43      -0.084100
     26 C5A         -1.9810    -0.6450     8.8420 c5         1 W43       0.115600
     27 O1A         -2.0540    -0.3200     7.4450 os         1 W43      -0.456600
     28 H311         0.8230    -1.9330   -11.8360 hc         1 W43       0.055700
     29 H312         0.5690    -0.4020   -12.6920 hc         1 W43       0.055700
     30 H313         2.1140    -0.7210   -11.8800 hc         1 W43       0.055700
     31 H4          -0.4380    -1.9510    -9.4650 ha         1 W43       0.151000
     32 H1C1        -1.7650    -0.9690    -7.2230 hc         1 W43       0.063200
     33 H1C2        -1.9250     0.7820    -7.2020 hc         1 W43       0.063200
     34 H2C1         0.3270     0.9800    -6.1010 hc         1 W43       0.051700
     35 H2C2         0.4950    -0.7750    -6.1320 hc         1 W43       0.051700
     36 H3C1        -1.5310    -0.9960    -4.6600 hc         1 W43       0.039200
     37 H3C2        -1.7000     0.7600    -4.6300 hc         1 W43       0.039200
     38 H4C1         0.5540     0.9580    -3.5350 hc         1 W43       0.043700
     39 H4C2         0.7230    -0.7970    -3.5650 hc         1 W43       0.043700
     40 H5C1        -1.3030    -1.0180    -2.0940 hc         1 W43       0.039200
     41 H5C2        -1.4720     0.7380    -2.0640 hc         1 W43       0.039200
     42 H6C1         0.7800     0.9370    -0.9640 hc         1 W43       0.059700
     43 H6C2         0.9490    -0.8200    -0.9940 hc         1 W43       0.059700
     44 H7C1        -1.0590    -1.0490     0.4830 h1         1 W43       0.038200
     45 H7C2        -1.2300     0.7280     0.5130 h1         1 W43       0.038200
     46 H2B         -2.0030    -0.2780     2.5460 ha         1 W43       0.123000
     47 H3B         -2.5020    -0.3670     4.9440 ha         1 W43       0.131000
     48 H5B          1.7200     0.0240     5.8440 ha         1 W43       0.154000
     49 H4A         -0.1270    -0.7300    10.0120 h1         1 W43       0.076700
     50 HM11         0.3930     1.7260     9.9860 hc         1 W43       0.043700
     51 HM12        -1.0790     2.0490     9.0490 hc         1 W43       0.043700
     52 HM13        -1.1970     1.4340    10.7060 hc         1 W43       0.043700
     53 H5A1        -2.0170    -1.7380     8.9530 h1         1 W43       0.062200
     54 H5A2        -2.8210    -0.1990     9.3910 h1         1 W43       0.062200
@<TRIPOS>BOND
     1     1     2 1   
     2     1     6 1   
     3     2     3 2   
     4     3     4 1   
     5     3     5 1   
     6     4    28 1   
     7     4    29 1   
     8     4    30 1   
     9     5     6 2   
    10     5    31 1   
    11     6     7 1   
    12     7     8 1   
    13     7    32 1   
    14     7    33 1   
    15     8     9 1   
    16     8    34 1   
    17     8    35 1   
    18     9    10 1   
    19     9    36 1   
    20     9    37 1   
    21    10    11 1   
    22    10    38 1   
    23    10    39 1   
    24    11    12 1   
    25    11    40 1   
    26    11    41 1   
    27    12    13 1   
    28    12    42 1   
    29    12    43 1   
    30    13    14 1   
    31    13    44 1   
    32    13    45 1   
    33    14    15 1   
    34    15    16 ar  
    35    15    20 ar  
    36    16    17 ar  
    37    16    46 1   
    38    17    18 ar  
    39    17    47 1   
    40    18    19 ar  
    41    18    22 1   
    42    19    20 ar  
    43    19    48 1   
    44    20    21 1   
    45    22    23 2   
    46    22    27 1   
    47    23    24 1   
    48    24    25 1   
    49    24    26 1   
    50    24    49 1   
    51    25    50 1   
    52    25    51 1   
    53    25    52 1   
    54    26    27 1   
    55    26    53 1   
    56    26    54 1   
@<TRIPOS>SUBSTRUCTURE
     1 W43         1 TEMP              0 ****  ****    0 ROOT
