@<TRIPOS>MOLECULE
W43
   54    56     1     0     0
SMALL
abcg2


@<TRIPOS>ATOM
      1 O1           0.1700     1.1090    -8.8260 os         1 W43      -0.076700
      2 N2           0.7330     0.9170   -10.0570 nc         1 W43      -0.366300
      3 C3           0.4060    -0.2880   -10.4250 cd         1 W43       0.279300
      4 C31          0.8560    -0.8470   -11.7280 c3         1 W43      -0.132400
      5 C4          -0.3890    -0.9200    -9.4330 cd         1 W43      -0.251000
      6 C5          -0.5000     0.0120    -8.4560 cc         1 W43       0.185300
      7 C1C         -1.1640     0.0140    -7.1290 c3         1 W43      -0.116700
      8 C2C         -0.1740     0.0480    -5.9610 c3         1 W43      -0.073400
      9 C3C         -0.8830    -0.0120    -4.6140 c3         1 W43      -0.075400
     10 C4C          0.0830     0.0230    -3.4380 c3         1 W43      -0.074400
     11 C5C         -0.6210    -0.0680    -2.0900 c3         1 W43      -0.073400
     12 C6C          0.3520    -0.0050    -0.9170 c3         1 W43      -0.082400
     13 C7C         -0.3710    -0.1420     0.4050 c3         1 W43       0.164600
     14 O1B          0.5920    -0.0300     1.4500 os         1 W43      -0.329100
     15 C1B          0.1870    -0.0840     2.7170 ca         1 W43       0.179100
     16 C2B         -1.1250    -0.3030     3.1300 ca         1 W43      -0.215000
     17 C3B         -1.4440    -0.3420     4.4780 ca         1 W43      -0.025000
     18 C4B         -0.4660    -0.1600     5.4480 ca         1 W43      -0.167900
     19 C5B          0.8520     0.0610     5.0430 ca         1 W43      -0.021000
     20 C6B          1.1670     0.0950     3.7050 ca         1 W43       0.061000
     21 CL1          2.8010     0.3680     3.2120 cl         1 W43      -0.180000
     22 C2A         -0.7740    -0.1950     6.8780 ce         1 W43       0.647200
     23 N3A          0.0560    -0.0090     7.8160 n2         1 W43      -0.644900
     24 C4A         -0.6810    -0.0910     9.0730 c5         1 W43       0.089500
     25 CM1         -0.6310     1.2300     9.8230 c3         1 W43      -0.084100
     26 C5A         -2.1040    -0.5000     8.6380 c5         1 W43       0.115600
     27 O1A         -2.0530    -0.4490     7.2050 os         1 W43      -0.456600
     28 H311         1.4960    -1.7150   -11.5720 hc         1 W43       0.055700
     29 H312         0.0020    -1.1760   -12.3200 hc         1 W43       0.055700
     30 H313         1.4120    -0.1080   -12.3020 hc         1 W43       0.055700
     31 H4          -0.8090    -1.9120    -9.4500 ha         1 W43       0.151000
     32 H1C1        -1.7810    -0.8840    -7.0640 hc         1 W43       0.063200
     33 H1C2        -1.8440     0.8680    -7.0590 hc         1 W43       0.063200
     34 H2C1         0.4340     0.9550    -6.0150 hc         1 W43       0.051700
     35 H2C2         0.5160    -0.7960    -6.0500 hc         1 W43       0.051700
     36 H3C1        -1.4870    -0.9250    -4.5620 hc         1 W43       0.039200
     37 H3C2        -1.5860     0.8240    -4.5330 hc         1 W43       0.039200
     38 H4C1         0.6740     0.9450    -3.4790 hc         1 W43       0.043700
     39 H4C2         0.7980    -0.8020    -3.5300 hc         1 W43       0.043700
     40 H5C1        -1.1940    -1.0000    -2.0440 hc         1 W43       0.039200
     41 H5C2        -1.3500     0.7440    -2.0030 hc         1 W43       0.039200
     42 H6C1         0.8940     0.9450    -0.9400 hc         1 W43       0.059700
     43 H6C2         1.0950    -0.8010    -1.0110 hc         1 W43       0.059700
     44 H7C1        -0.8780    -1.1120     0.4630 h1         1 W43       0.038200
     45 H7C2        -1.1310     0.6390     0.5140 h1         1 W43       0.038200
     46 H2B         -1.9150    -0.4470     2.4050 ha         1 W43       0.123000
     47 H3B         -2.4740    -0.5170     4.7570 ha         1 W43       0.131000
     48 H5B          1.6270     0.2050     5.7840 ha         1 W43       0.154000
     49 H4A         -0.2330    -0.8660     9.7000 h1         1 W43       0.076700
     50 HM11         0.3980     1.5150    10.0440 hc         1 W43       0.043700
     51 HM12        -1.0900     2.0310     9.2410 hc         1 W43       0.043700
     52 HM13        -1.1680     1.1510    10.7700 hc         1 W43       0.043700
     53 H5A1        -2.3690    -1.5130     8.9440 h1         1 W43       0.062200
     54 H5A2        -2.8780     0.1860     8.9870 h1         1 W43       0.062200
@<TRIPOS>BOND
     1     1     2 1   
     2     1     6 1   
     3     2     3 2   
     4     3     4 1   
     5     3     5 1   
     6     4    28 1   
     7     4    29 1   
     8     4    30 1   
     9     5     6 2   
    10     5    31 1   
    11     6     7 1   
    12     7     8 1   
    13     7    32 1   
    14     7    33 1   
    15     8     9 1   
    16     8    34 1   
    17     8    35 1   
    18     9    10 1   
    19     9    36 1   
    20     9    37 1   
    21    10    11 1   
    22    10    38 1   
    23    10    39 1   
    24    11    12 1   
    25    11    40 1   
    26    11    41 1   
    27    12    13 1   
    28    12    42 1   
    29    12    43 1   
    30    13    14 1   
    31    13    44 1   
    32    13    45 1   
    33    14    15 1   
    34    15    16 ar  
    35    15    20 ar  
    36    16    17 ar  
    37    16    46 1   
    38    17    18 ar  
    39    17    47 1   
    40    18    19 ar  
    41    18    22 1   
    42    19    20 ar  
    43    19    48 1   
    44    20    21 1   
    45    22    23 2   
    46    22    27 1   
    47    23    24 1   
    48    24    25 1   
    49    24    26 1   
    50    24    49 1   
    51    25    50 1   
    52    25    51 1   
    53    25    52 1   
    54    26    27 1   
    55    26    53 1   
    56    26    54 1   
@<TRIPOS>SUBSTRUCTURE
     1 W43         1 TEMP              0 ****  ****    0 ROOT
