@<TRIPOS>MOLECULE
W44
   36    39     1     0     0
SMALL
No Charge or Current Charge


@<TRIPOS>ATOM
      1 N1           4.8500    55.3370    -6.3210 n7         1 W44      -0.867400
      2 C4           5.8450    54.2370    -6.1140 c6         1 W44       0.178500
      3 C5           5.7310    53.7410    -4.6440 c6         1 W44      -0.021200
      4 C6           6.3310    54.7620    -3.6970 cc         1 W44      -0.137400
      5 C7           6.2380    54.8880    -2.2710 ca         1 W44      -0.086800
      6 C8           5.5390    54.1060    -1.3420 ca         1 W44      -0.061000
      7 C10          6.3990    55.5800     0.4170 ca         1 W44      -0.092000
      8 C13          5.4050    56.5720    -6.9550 c6         1 W44       0.167800
      9 O            7.4480    57.9400    -7.1250 oh         1 W44      -0.652000
     10 C14          6.6650    57.1510    -6.2130 c6         1 W44       0.132300
     11 C2           7.5450    56.0190    -5.5850 c6         1 W44      -0.038500
     12 C3           7.3130    54.6980    -6.3660 c6         1 W44      -0.088400
     13 C1           7.1640    55.7970    -4.1260 cd         1 W44      -0.063300
     14 C12          6.9880    55.9690    -1.8940 ca         1 W44      -0.042200
     15 N            7.5710    56.5580    -3.0060 na         1 W44      -0.085700
     16 C            8.4440    57.7410    -2.9520 c3         1 W44       0.065900
     17 C11          7.0910    56.3470    -0.5450 ca         1 W44      -0.129000
     18 C9           5.6260    54.4640     0.0200 ca         1 W44      -0.141000
     19 H1           4.5230    55.6070    -5.3850 hn         1 W44       0.422000
     20 H3           5.6090    53.4030    -6.7930 h1         1 W44       0.066700
     21 H4           4.6820    53.5320    -4.3920 hc         1 W44       0.055700
     22 H5           6.2620    52.7840    -4.5430 hc         1 W44       0.055700
     23 H6           4.9490    53.2500    -1.6600 ha         1 W44       0.114000
     24 H7           6.4610    55.8490     1.4700 ha         1 W44       0.110000
     25 H8           5.6790    56.3390    -7.9950 h1         1 W44       0.063700
     26 H9           4.6250    57.3470    -6.9990 h1         1 W44       0.063700
     27 H10          8.1400    58.3900    -6.5940 ho         1 W44       0.438000
     28 H11          6.3090    57.7970    -5.3960 h1         1 W44       0.035700
     29 H12          8.6080    56.2890    -5.6450 hc         1 W44       0.060700
     30 H13          8.0180    53.9250    -6.0290 hc         1 W44       0.057200
     31 H14          7.5030    54.8390    -7.4390 hc         1 W44       0.057200
     32 H15          7.9080    58.5700    -2.4730 h1         1 W44       0.046367
     33 H16          9.3440    57.5060    -2.3700 h1         1 W44       0.046367
     34 H17          8.7370    58.0410    -3.9640 h1         1 W44       0.046367
     35 H18          7.6870    57.2050    -0.2430 ha         1 W44       0.112000
     36 H19          5.0960    53.8780     0.7680 ha         1 W44       0.111000
@<TRIPOS>BOND
     1     1     2 1   
     2     1     8 1   
     3     1    19 1   
     4     2     3 1   
     5     2    12 1   
     6     2    20 1   
     7     3     4 1   
     8     3    21 1   
     9     3    22 1   
    10     4     5 1   
    11     4    13 2   
    12     5     6 ar  
    13     5    14 ar  
    14     6    18 ar  
    15     6    23 1   
    16     7    17 ar  
    17     7    18 ar  
    18     7    24 1   
    19     8    10 1   
    20     8    25 1   
    21     8    26 1   
    22     9    10 1   
    23     9    27 1   
    24    10    11 1   
    25    10    28 1   
    26    11    12 1   
    27    11    13 1   
    28    11    29 1   
    29    12    30 1   
    30    12    31 1   
    31    13    15 1   
    32    14    15 1   
    33    14    17 ar  
    34    15    16 1   
    35    16    32 1   
    36    16    33 1   
    37    16    34 1   
    38    17    35 1   
    39    18    36 1   
@<TRIPOS>SUBSTRUCTURE
     1 W44         1 TEMP              0 ****  ****    0 ROOT
