@<TRIPOS>MOLECULE
W44
   36    39     1     0     0
SMALL
abcg2


@<TRIPOS>ATOM
      1 N1           4.9200    55.3870    -6.2630 n7         1 W44      -0.867400
      2 C4           5.8690    54.2790    -6.0880 c6         1 W44       0.178500
      3 C5           5.7590    53.7260    -4.6650 c6         1 W44      -0.021200
      4 C6           6.3610    54.7040    -3.7090 cc         1 W44      -0.137400
      5 C7           6.2250    54.8200    -2.2930 ca         1 W44      -0.086800
      6 C8           5.5470    54.0890    -1.3120 ca         1 W44      -0.061000
      7 C10          6.3820    55.6250     0.3690 ca         1 W44      -0.092000
      8 C13          5.4740    56.5760    -6.8730 c6         1 W44       0.167800
      9 O            7.4040    57.9220    -7.0910 oh         1 W44      -0.652000
     10 C14          6.6870    57.1670    -6.1400 c6         1 W44       0.132300
     11 C2           7.5420    56.0200    -5.5300 c6         1 W44      -0.038500
     12 C3           7.3110    54.7410    -6.3310 c6         1 W44      -0.088400
     13 C1           7.1600    55.7370    -4.1150 cd         1 W44      -0.063300
     14 C12          6.9740    55.9560    -1.9070 ca         1 W44      -0.042200
     15 N            7.5280    56.5020    -3.0320 na         1 W44      -0.085700
     16 C            8.4010    57.6490    -3.0300 c3         1 W44       0.065900
     17 C11          7.0630    56.3690    -0.5800 ca         1 W44      -0.129000
     18 C9           5.6300    54.4970     0.0070 ca         1 W44      -0.141000
     19 H1           4.4970    55.6290    -5.3770 hn         1 W44       0.422000
     20 H3           5.6280    53.4780    -6.7950 h1         1 W44       0.066700
     21 H4           4.7090    53.5320    -4.4190 hc         1 W44       0.055700
     22 H5           6.2630    52.7550    -4.6150 hc         1 W44       0.055700
     23 H6           4.9650    53.2150    -1.5790 ha         1 W44       0.114000
     24 H7           6.4280    55.9220     1.4090 ha         1 W44       0.110000
     25 H8           5.7720    56.3460    -7.9010 h1         1 W44       0.063700
     26 H9           4.6850    57.3270    -6.9490 h1         1 W44       0.063700
     27 H10          8.0770    58.4360    -6.6340 ho         1 W44       0.438000
     28 H11          6.3320    57.8140    -5.3260 h1         1 W44       0.035700
     29 H12          8.5990    56.3040    -5.5820 hc         1 W44       0.060700
     30 H13          8.0080    53.9550    -6.0310 hc         1 W44       0.057200
     31 H14          7.4930    54.9270    -7.3920 hc         1 W44       0.057200
     32 H15          7.9300    58.4890    -2.5200 h1         1 W44       0.046367
     33 H16          9.3480    57.4270    -2.5370 h1         1 W44       0.046367
     34 H17          8.6160    57.9580    -4.0490 h1         1 W44       0.046367
     35 H18          7.6360    57.2410    -0.2920 ha         1 W44       0.112000
     36 H19          5.1090    53.9390     0.7740 ha         1 W44       0.111000
@<TRIPOS>BOND
     1     1     2 1   
     2     1     8 1   
     3     1    19 1   
     4     2     3 1   
     5     2    12 1   
     6     2    20 1   
     7     3     4 1   
     8     3    21 1   
     9     3    22 1   
    10     4     5 1   
    11     4    13 2   
    12     5     6 ar  
    13     5    14 ar  
    14     6    18 ar  
    15     6    23 1   
    16     7    17 ar  
    17     7    18 ar  
    18     7    24 1   
    19     8    10 1   
    20     8    25 1   
    21     8    26 1   
    22     9    10 1   
    23     9    27 1   
    24    10    11 1   
    25    10    28 1   
    26    11    12 1   
    27    11    13 1   
    28    11    29 1   
    29    12    30 1   
    30    12    31 1   
    31    13    15 1   
    32    14    15 1   
    33    14    17 ar  
    34    15    16 1   
    35    16    32 1   
    36    16    33 1   
    37    16    34 1   
    38    17    35 1   
    39    18    36 1   
@<TRIPOS>SUBSTRUCTURE
     1 W44         1 TEMP              0 ****  ****    0 ROOT
