@<TRIPOS>MOLECULE
W45
   39    40     1     0     0
SMALL
No Charge or Current Charge


@<TRIPOS>ATOM
      1 C02          6.4840     0.3610    -0.0410 c          1 W45       0.610100
      2 C03          7.3580     0.9140     1.1040 c3         1 W45      -0.036400
      3 C06          4.1670    -0.4360    -0.5940 c3         1 W45       0.107000
      4 C07          2.8140    -0.6330     0.1140 c3         1 W45      -0.095400
      5 C08          1.7220    -1.1920    -0.8230 c3         1 W45      -0.071400
      6 C09          0.3640    -1.3900    -0.1150 c3         1 W45      -0.102400
      7 C10         -0.7280    -1.9480    -1.0530 c3         1 W45       0.076600
      8 C12         -2.5390    -3.3280     0.1590 cc         1 W45      -0.153100
      9 C13         -3.7740    -2.9650     0.6810 cd         1 W45      -0.234200
     10 C14         -4.0200    -1.5610     0.4720 ca         1 W45      -0.092800
     11 C15         -5.1060    -0.7480     0.8180 ca         1 W45      -0.045000
     12 C16         -5.0380     0.6170     0.4670 ca         1 W45       0.089000
     13 C18         -3.8980     1.1250    -0.2140 ca         1 W45       0.134000
     14 C20         -2.8230     0.2710    -0.5460 ca         1 W45      -0.113000
     15 C21         -2.9200    -1.0820    -0.1840 ca         1 W45      -0.045200
     16 N05          5.1810     0.0940     0.3180 ns         1 W45      -0.510900
     17 N11         -2.0250    -2.1300    -0.3780 na         1 W45      -0.083700
     18 O01          6.8910     0.1660    -1.1790 o          1 W45      -0.574100
     19 S04          9.1240     1.2680     0.6090 sh         1 W45      -0.349800
     20 Cl1         -3.7940     2.8280    -0.6600 cl         1 W45      -0.181000
     21 H1           6.8950     1.8400     1.4680 h1         1 W45       0.072700
     22 H2           7.3540     0.1820     1.9200 h1         1 W45       0.072700
     23 H3           4.5170    -1.3980    -0.9940 h1         1 W45       0.054200
     24 H4           4.0450     0.2620    -1.4340 h1         1 W45       0.054200
     25 H5           2.9490    -1.3180     0.9610 hc         1 W45       0.045700
     26 H6           2.4800     0.3280     0.5250 hc         1 W45       0.045700
     27 H7           1.5890    -0.5080    -1.6710 hc         1 W45       0.045700
     28 H8           2.0570    -2.1530    -1.2350 hc         1 W45       0.045700
     29 H9           0.4920    -2.0770     0.7310 hc         1 W45       0.055200
     30 H10          0.0290    -0.4320     0.3000 hc         1 W45       0.055200
     31 H11         -0.8630    -1.2730    -1.9070 h1         1 W45       0.060200
     32 H12         -0.4040    -2.9180    -1.4480 h1         1 W45       0.060200
     33 H13         -2.0140    -4.2780     0.1260 h4         1 W45       0.214000
     34 H14         -4.4550    -3.6510     1.1800 ha         1 W45       0.211000
     35 H15         -5.9700    -1.1520     1.3390 ha         1 W45       0.134000
     36 H16         -1.9510     0.6600    -1.0640 ha         1 W45       0.131000
     37 H17          4.9200     0.2810     1.2790 hn         1 W45       0.312500
     38 H18          9.5390     1.7130     1.8200 hs         1 W45       0.181800
     39 Cl2         -6.3880     1.6730     0.8870 cl         1 W45      -0.183000
@<TRIPOS>BOND
     1     1     2 1   
     2     1    16 1   
     3     1    18 2   
     4     2    19 1   
     5     2    21 1   
     6     2    22 1   
     7     3     4 1   
     8     3    16 1   
     9     3    23 1   
    10     3    24 1   
    11     4     5 1   
    12     4    25 1   
    13     4    26 1   
    14     5     6 1   
    15     5    27 1   
    16     5    28 1   
    17     6     7 1   
    18     6    29 1   
    19     6    30 1   
    20     7    17 1   
    21     7    31 1   
    22     7    32 1   
    23     8     9 2   
    24     8    17 1   
    25     8    33 1   
    26     9    10 1   
    27     9    34 1   
    28    10    11 ar  
    29    10    15 ar  
    30    11    12 ar  
    31    11    35 1   
    32    12    13 ar  
    33    12    39 1   
    34    13    14 ar  
    35    13    20 1   
    36    14    15 ar  
    37    14    36 1   
    38    15    17 1   
    39    16    37 1   
    40    19    38 1   
@<TRIPOS>SUBSTRUCTURE
     1 W45         1 TEMP              0 ****  ****    0 ROOT
