@<TRIPOS>MOLECULE
W45
   39    40     1     0     0
SMALL
abcg2


@<TRIPOS>ATOM
      1 C02          6.3780     0.3130     0.0240 c          1 W45       0.610100
      2 C03          7.2440     0.9040     1.1190 c3         1 W45      -0.036400
      3 C06          4.1310    -0.4800    -0.5360 c3         1 W45       0.107000
      4 C07          2.7850    -0.6350     0.1530 c3         1 W45      -0.095400
      5 C08          1.7290    -1.1940    -0.7900 c3         1 W45      -0.071400
      6 C09          0.3710    -1.3410    -0.1160 c3         1 W45      -0.102400
      7 C10         -0.6720    -1.9100    -1.0690 c3         1 W45       0.076600
      8 C12         -2.4760    -3.2080     0.0870 cc         1 W45      -0.153100
      9 C13         -3.6900    -2.9770     0.6670 cd         1 W45      -0.234200
     10 C14         -3.9630    -1.5900     0.4830 ca         1 W45      -0.092800
     11 C15         -5.0240    -0.7540     0.8370 ca         1 W45      -0.045000
     12 C16         -4.9670     0.5800     0.4930 ca         1 W45       0.089000
     13 C18         -3.8630     1.1000    -0.2070 ca         1 W45       0.134000
     14 C20         -2.8010     0.2970    -0.5680 ca         1 W45      -0.113000
     15 C21         -2.8630    -1.0480    -0.2190 ca         1 W45      -0.045200
     16 N05          5.1130     0.0650     0.3810 ns         1 W45      -0.510900
     17 N11         -1.9750    -2.0560    -0.4550 na         1 W45      -0.083700
     18 O01          6.8190     0.0870    -1.0930 o          1 W45      -0.574100
     19 S04          8.9040     1.1720     0.4400 sh         1 W45      -0.349800
     20 CL1         -3.8210     2.7740    -0.6300 cl         1 W45      -0.181000
     21 H1           6.8140     1.8450     1.4660 h1         1 W45       0.072700
     22 H2           7.2830     0.2240     1.9720 h1         1 W45       0.072700
     23 H3           4.4710    -1.4500    -0.9090 h1         1 W45       0.054200
     24 H4           4.0310     0.1780    -1.4030 h1         1 W45       0.054200
     25 H5           2.8900    -1.2960     1.0190 hc         1 W45       0.045700
     26 H6           2.4560     0.3370     0.5350 hc         1 W45       0.045700
     27 H7           1.6360    -0.5380    -1.6610 hc         1 W45       0.045700
     28 H8           2.0570    -2.1670    -1.1690 hc         1 W45       0.045700
     29 H9           0.4540    -1.9990     0.7540 hc         1 W45       0.055200
     30 H10          0.0390    -0.3680     0.2580 hc         1 W45       0.055200
     31 H11         -0.7700    -1.2780    -1.9550 h1         1 W45       0.060200
     32 H12         -0.3630    -2.8940    -1.4230 h1         1 W45       0.060200
     33 H13         -1.9180    -4.1290     0.0090 h4         1 W45       0.214000
     34 H14         -4.3130    -3.7080     1.1570 ha         1 W45       0.211000
     35 H15         -5.8810    -1.1400     1.3730 ha         1 W45       0.134000
     36 H16         -1.9580     0.7160    -1.1020 ha         1 W45       0.131000
     37 H17          4.8170     0.2930     1.3170 hn         1 W45       0.312500
     38 H18          9.4320     1.6660     1.5660 hs         1 W45       0.181800
     39 CL2         -6.2740     1.6210     0.9330 cl         1 W45      -0.183000
@<TRIPOS>BOND
     1     1     2 1   
     2     1    16 1   
     3     1    18 2   
     4     2    19 1   
     5     2    21 1   
     6     2    22 1   
     7     3     4 1   
     8     3    16 1   
     9     3    23 1   
    10     3    24 1   
    11     4     5 1   
    12     4    25 1   
    13     4    26 1   
    14     5     6 1   
    15     5    27 1   
    16     5    28 1   
    17     6     7 1   
    18     6    29 1   
    19     6    30 1   
    20     7    17 1   
    21     7    31 1   
    22     7    32 1   
    23     8     9 2   
    24     8    17 1   
    25     8    33 1   
    26     9    10 1   
    27     9    34 1   
    28    10    11 ar  
    29    10    15 ar  
    30    11    12 ar  
    31    11    35 1   
    32    12    13 ar  
    33    12    39 1   
    34    13    14 ar  
    35    13    20 1   
    36    14    15 ar  
    37    14    36 1   
    38    15    17 1   
    39    16    37 1   
    40    19    38 1   
@<TRIPOS>SUBSTRUCTURE
     1 W45         1 TEMP              0 ****  ****    0 ROOT
