@<TRIPOS>MOLECULE
W46
   34    35     1     0     0
SMALL
abcg2


@<TRIPOS>ATOM
      1 C10          8.3580   -34.9620   127.1470 ca         1 W46      -0.085000
      2 C11          8.7800   -34.8210   125.8240 ca         1 W46      -0.083300
      3 C12          9.0560   -36.0270   124.9750 c3         1 W46       0.206900
      4 C14          8.9660   -33.5350   125.3210 ca         1 W46      -0.085000
      5 C15          8.7460   -32.4160   126.1180 ca         1 W46      -0.104500
      6 C16          6.8150   -29.7570   127.0150 c2         1 W46      -0.016000
      7 C17          6.7150   -28.6950   126.2160 c2         1 W46      -0.271200
      8 C18          7.8740   -27.7830   125.9110 c6         1 W46       0.042000
      9 C04          9.1020   -28.1930   126.7020 ce         1 W46      -0.283400
     10 C05          9.0990   -29.3030   127.4770 c2         1 W46       0.068000
     11 C07          8.1140   -31.3700   128.3510 c3         1 W46       0.277100
     12 C08          8.3320   -32.5620   127.4390 ca         1 W46      -0.115300
     13 C09          8.1330   -33.8480   127.9430 ca         1 W46      -0.104500
     14 N01         11.3810   -27.5820   127.3450 nt         1 W46      -0.600000
     15 N06          8.0070   -30.0960   127.6630 nh         1 W46      -0.552200
     16 O03         10.3440   -26.4820   125.6670 o          1 W46      -0.616100
     17 O13         10.4340   -36.4060   125.1550 oh         1 W46      -0.662000
     18 H101         8.1960   -35.9550   127.5520 ha         1 W46       0.117000
     19 H121         8.8690   -35.7950   123.9220 h1         1 W46       0.029200
     20 H122         8.4020   -36.8520   125.2700 h1         1 W46       0.029200
     21 H141         9.2830   -33.4050   124.2920 ha         1 W46       0.117000
     22 H151         8.8920   -31.4290   125.7010 ha         1 W46       0.119000
     23 H161         5.9840   -30.4170   127.2230 h4         1 W46       0.194000
     24 H171         5.7560   -28.4800   125.7620 ha         1 W46       0.187000
     25 H182         8.0910   -27.7880   124.8360 hc         1 W46       0.056200
     26 H181         7.6080   -26.7430   126.1350 hc         1 W46       0.056200
     27 H051         9.9840   -29.6430   127.9970 h4         1 W46       0.186000
     28 H071         7.2080   -31.5240   128.9400 h1         1 W46       0.061200
     29 H072         8.9410   -31.2970   129.0600 h1         1 W46       0.061200
     30 H091         7.7970   -33.9760   128.9660 ha         1 W46       0.119000
     31 H011        12.1360   -26.9180   127.2760 hn         1 W46       0.300500
     32 H012        11.2890   -28.0600   128.2260 hn         1 W46       0.300500
     33 H131        10.6050   -37.1710   124.5900 ho         1 W46       0.440000
     34 C02         10.2990   -27.3610   126.5410 c          1 W46       0.611300
@<TRIPOS>BOND
     1     1     2 ar  
     2     1    13 ar  
     3     1    18 1   
     4     2     3 1   
     5     2     4 ar  
     6     3    17 1   
     7     3    19 1   
     8     3    20 1   
     9     4     5 ar  
    10     4    21 1   
    11     5    12 ar  
    12     5    22 1   
    13     6     7 2   
    14     6    15 1   
    15     6    23 1   
    16     7     8 1   
    17     7    24 1   
    18     8     9 1   
    19     8    25 1   
    20     8    26 1   
    21     9    10 2   
    22     9    34 1   
    23    10    15 1   
    24    10    27 1   
    25    11    12 1   
    26    11    15 1   
    27    11    28 1   
    28    11    29 1   
    29    12    13 ar  
    30    13    30 1   
    31    14    31 1   
    32    14    32 1   
    33    14    34 1   
    34    16    34 2   
    35    17    33 1   
@<TRIPOS>SUBSTRUCTURE
     1 W46         1 TEMP              0 ****  ****    0 ROOT
