@<TRIPOS>MOLECULE
W46
   34    35     1     0     0
SMALL
No Charge or Current Charge


@<TRIPOS>ATOM
      1 C10          7.8180   -34.3030   126.2050 ca         1 W46      -0.085000
      2 C11          9.1110   -34.6180   125.7430 ca         1 W46      -0.083300
      3 C12          9.3160   -35.7370   124.7300 c3         1 W46       0.206900
      4 C14         10.2110   -33.8830   126.2250 ca         1 W46      -0.085000
      5 C15         10.0220   -32.8450   127.1550 ca         1 W46      -0.104500
      6 C16          6.7560   -29.8390   127.8150 c2         1 W46      -0.016000
      7 C17          6.3470   -28.8130   127.0550 c2         1 W46      -0.271200
      8 C18          7.3010   -27.8680   126.3460 c6         1 W46       0.042000
      9 C04          8.7660   -28.2510   126.5940 ce         1 W46      -0.283400
     10 C05          9.0680   -29.3180   127.3760 c2         1 W46       0.068000
     11 C07          8.5200   -31.4030   128.6250 c3         1 W46       0.277100
     12 C08          8.7280   -32.5300   127.6160 ca         1 W46      -0.115300
     13 C09          7.6280   -33.2660   127.1350 ca         1 W46      -0.104500
     14 N01         11.0930   -27.7060   126.1190 nt         1 W46      -0.600000
     15 N06          8.1100   -30.1220   128.0010 nh         1 W46      -0.552200
     16 O03          9.5140   -26.4360   125.2200 o          1 W46      -0.616100
     17 O13          9.5320   -36.9840   125.4020 oh         1 W46      -0.662000
     18 H101         6.9590   -34.8640   125.8420 ha         1 W46       0.117000
     19 H121        10.1760   -35.4940   124.0920 h1         1 W46       0.029200
     20 H122         8.4340   -35.8030   124.0790 h1         1 W46       0.029200
     21 H141        11.2160   -34.1160   125.8780 ha         1 W46       0.117000
     22 H151        10.8830   -32.2870   127.5160 ha         1 W46       0.119000
     23 H161         6.0500   -30.5090   128.3150 h4         1 W46       0.194000
     24 H171         5.2830   -28.6170   126.9200 ha         1 W46       0.187000
     25 H182         7.0900   -27.8800   125.2680 hc         1 W46       0.056200
     26 H181         7.1200   -26.8410   126.6920 hc         1 W46       0.056200
     27 H051        10.0990   -29.6250   127.5660 h4         1 W46       0.186000
     28 H071         7.7650   -31.7190   129.3580 h1         1 W46       0.061200
     29 H072         9.4500   -31.2550   129.1900 h1         1 W46       0.061200
     30 H091         6.6230   -33.0330   127.4790 ha         1 W46       0.119000
     31 H011        11.8050   -27.1420   125.6790 hn         1 W46       0.300500
     32 H012        11.3500   -28.4900   126.6970 hn         1 W46       0.300500
     33 H131         9.6570   -37.6630   124.7020 ho         1 W46       0.440000
     34 C02          9.7950   -27.3920   125.9230 c          1 W46       0.611300
@<TRIPOS>BOND
     1     1     2 ar  
     2     1    13 ar  
     3     1    18 1   
     4     2     3 1   
     5     2     4 ar  
     6     3    17 1   
     7     3    19 1   
     8     3    20 1   
     9     4     5 ar  
    10     4    21 1   
    11     5    12 ar  
    12     5    22 1   
    13     6     7 2   
    14     6    15 1   
    15     6    23 1   
    16     7     8 1   
    17     7    24 1   
    18     8     9 1   
    19     8    25 1   
    20     8    26 1   
    21     9    10 2   
    22     9    34 1   
    23    10    15 1   
    24    10    27 1   
    25    11    12 1   
    26    11    15 1   
    27    11    28 1   
    28    11    29 1   
    29    12    13 ar  
    30    13    30 1   
    31    14    31 1   
    32    14    32 1   
    33    14    34 1   
    34    16    34 2   
    35    17    33 1   
@<TRIPOS>SUBSTRUCTURE
     1 W46         1 TEMP              0 ****  ****    0 ROOT
