@<TRIPOS>MOLECULE
W47
   48    51     1     0     0
SMALL
No Charge or Current Charge


@<TRIPOS>ATOM
      1 C1          -2.5280    -7.2290    36.2930 c3         1 W47      -0.119400
      2 C10         -6.8510    -1.2080    35.3050 ca         1 W47      -0.238300
      3 C11         -6.7710    -0.5950    36.5690 ca         1 W47      -0.014000
      4 C12         -6.0670    -1.2200    37.6060 ca         1 W47      -0.207000
      5 C13         -5.4340    -2.4620    37.4040 ca         1 W47       0.195100
      6 C15         -5.7580    -3.4530    39.4300 cx         1 W47       0.110300
      7 C17         -6.4270    -4.7890    39.2210 cx         1 W47      -0.153400
      8 C18         -5.4230    -4.6160    40.3450 cx         1 W47      -0.026700
      9 C19         -5.9350    -4.5540    41.7890 c3         1 W47       0.181800
     10 C2          -3.4980    -6.1950    35.7980 cc         1 W47       0.250300
     11 C21         -4.0710    -5.2900    40.2540 ca         1 W47      -0.096300
     12 C22         -3.9790    -6.6400    39.8550 ca         1 W47      -0.038000
     13 C23         -2.7260    -7.2710    39.7730 ca         1 W47      -0.173000
     14 C24         -1.5600    -6.5570    40.0850 ca         1 W47       0.200000
     15 C26         -1.6370    -5.2190    40.4890 ca         1 W47      -0.198000
     16 C27         -2.8870    -4.5910    40.5790 ca         1 W47       0.222000
     17 C29         -7.6130    -0.5390    34.1560 c3         1 W47       0.363300
     18 C3          -3.8690    -5.0780    36.5540 cc         1 W47      -0.191000
     19 C4          -4.7470    -4.3450    35.8070 cd         1 W47      -0.095000
     20 C8          -5.4570    -3.0760    36.1220 ca         1 W47      -0.059000
     21 C9          -6.1860    -2.4340    35.0920 ca         1 W47      -0.026000
     22 F25         -0.3570    -7.1650    39.9990 f          1 W47      -0.174000
     23 F28         -2.9420    -3.3020    40.9860 f          1 W47      -0.170000
     24 F30         -8.2570    -1.4410    33.3800 f          1 W47      -0.114333
     25 F31         -8.5510     0.3340    34.5910 f          1 W47      -0.114333
     26 F32         -6.7760     0.1510    33.3490 f          1 W47      -0.114333
     27 N20         -6.2220    -5.8930    42.3470 n8         1 W47      -0.991200
     28 N5          -4.8610    -5.0910    34.6190 na         1 W47      -0.003200
     29 N6          -4.0780    -6.2460    34.6200 nd         1 W47      -0.515800
     30 H1          -1.9980    -7.7040    35.4600 hc         1 W47       0.047033
     31 H2          -1.7780    -6.7780    36.9540 hc         1 W47       0.047033
     32 H3          -3.0520    -8.0110    36.8540 hc         1 W47       0.047033
     33 H4          -7.2510     0.3640    36.7560 ha         1 W47       0.132000
     34 H5          -6.0140    -0.7360    38.5770 ha         1 W47       0.129000
     35 H6          -6.3480    -2.6390    39.8540 h1         1 W47       0.090700
     36 H7          -7.4800    -4.8660    39.4790 hc         1 W47       0.086200
     37 H8          -6.1330    -5.3680    38.3500 hc         1 W47       0.086200
     38 H9          -5.1870    -4.0590    42.4250 h1         1 W47       0.039200
     39 H10         -6.8580    -3.9570    41.8300 h1         1 W47       0.039200
     40 H11         -4.8790    -7.2010    39.6140 ha         1 W47       0.121000
     41 H12         -2.6570    -8.3110    39.4670 ha         1 W47       0.137000
     42 H13         -0.7330    -4.6710    40.7370 ha         1 W47       0.151000
     43 H14         -3.4840    -4.8620    37.5410 ha         1 W47       0.148000
     44 H15         -6.2230    -2.8780    34.1010 ha         1 W47       0.130000
     45 H16         -6.6360    -5.7860    43.2810 hn         1 W47       0.397000
     46 H17         -6.9710    -6.3280    41.7960 hn         1 W47       0.397000
     47 H19         -5.4450    -4.8570    33.8180 hn         1 W47       0.370000
     48 O14         -4.7920    -3.0530    38.4700 os         1 W47      -0.287100
@<TRIPOS>BOND
     1     1    10 1   
     2     1    30 1   
     3     1    31 1   
     4     1    32 1   
     5     2     3 ar  
     6     2    17 1   
     7     2    21 ar  
     8     3     4 ar  
     9     3    33 1   
    10     4     5 ar  
    11     4    34 1   
    12     5    20 ar  
    13     5    48 1   
    14     6     7 1   
    15     6     8 1   
    16     6    35 1   
    17     6    48 1   
    18     7     8 1   
    19     7    36 1   
    20     7    37 1   
    21     8     9 1   
    22     8    11 1   
    23     9    27 1   
    24     9    38 1   
    25     9    39 1   
    26    10    18 1   
    27    10    29 2   
    28    11    12 ar  
    29    11    16 ar  
    30    12    13 ar  
    31    12    40 1   
    32    13    14 ar  
    33    13    41 1   
    34    14    15 ar  
    35    14    22 1   
    36    15    16 ar  
    37    15    42 1   
    38    16    23 1   
    39    17    24 1   
    40    17    25 1   
    41    17    26 1   
    42    18    19 2   
    43    18    43 1   
    44    19    20 1   
    45    19    28 1   
    46    20    21 ar  
    47    21    44 1   
    48    27    45 1   
    49    27    46 1   
    50    28    29 1   
    51    28    47 1   
@<TRIPOS>SUBSTRUCTURE
     1 W47         1 TEMP              0 ****  ****    0 ROOT
