@<TRIPOS>MOLECULE
W47
   48    51     1     0     0
SMALL
bcc


@<TRIPOS>ATOM
      1 C1          -1.6580    -6.6790    35.9960 c3         1 W47      -0.119400
      2 C10         -7.0920    -1.8090    35.1140 ca         1 W47      -0.238300
      3 C11         -7.6230    -1.5840    36.3730 ca         1 W47      -0.032000
      4 C12         -7.0060    -2.1140    37.4950 ca         1 W47      -0.225000
      5 C13         -5.8460    -2.8710    37.3700 ca         1 W47       0.195100
      6 C15         -5.7320    -3.2430    39.6860 cx         1 W47       0.087100
      7 C17         -6.7830    -4.2220    40.0930 cx         1 W47      -0.153400
      8 C18         -5.3910    -4.3130    40.6660 cx         1 W47      -0.026700
      9 C19         -5.2260    -3.8950    42.1140 c3         1 W47       0.181800
     10 C2          -2.5190    -5.4800    35.7990 cc         1 W47       0.315600
     11 C21         -4.5050    -5.4260    40.2260 ca         1 W47      -0.096300
     12 C22         -4.9540    -6.7340    40.0910 ca         1 W47      -0.056000
     13 C23         -4.1060    -7.7680    39.7160 ca         1 W47      -0.191000
     14 C24         -2.7770    -7.4710    39.4890 ca         1 W47       0.164900
     15 C26         -2.2740    -6.1920    39.6170 ca         1 W47      -0.216000
     16 C27         -3.1590    -5.1970    39.9800 ca         1 W47       0.186900
     17 C29         -7.7290    -1.2590    33.8820 c3         1 W47       0.727200
     18 C3          -3.7050    -5.1410    36.4780 cc         1 W47      -0.274300
     19 C4          -4.1130    -3.9490    35.9160 cd         1 W47      -0.044300
     20 C8          -5.3080    -3.1240    36.0950 ca         1 W47      -0.059000
     21 C9          -5.9440    -2.5840    34.9860 ca         1 W47      -0.044000
     22 F25         -1.9390    -8.4530    39.1270 f          1 W47      -0.138900
     23 F28         -2.6860    -3.9490    40.0980 f          1 W47      -0.134900
     24 F30         -8.0890    -2.2310    33.0280 f          1 W47      -0.235633
     25 F31         -8.8280    -0.5460    34.1450 f          1 W47      -0.235633
     26 F32         -6.8950    -0.4570    33.2020 f          1 W47      -0.235633
     27 N20         -5.6150    -4.9810    42.9930 n8         1 W47      -0.880800
     28 N5          -3.1840    -3.6530    34.9820 na         1 W47      -0.003600
     29 N6          -2.2160    -4.5570    34.9000 nd         1 W47      -0.515800
     30 H1          -0.9580    -6.7930    35.1700 hc         1 W47       0.047033
     31 H2          -1.0750    -6.6070    36.9160 hc         1 W47       0.047033
     32 H3          -2.2560    -7.5870    36.0650 hc         1 W47       0.047033
     33 H4          -8.5210    -0.9970    36.5080 ha         1 W47       0.150000
     34 H5          -7.4410    -1.9220    38.4660 ha         1 W47       0.147000
     35 H6          -5.7890    -2.2170    40.0440 h1         1 W47       0.090700
     36 H7          -7.5850    -3.8790    40.7360 hc         1 W47       0.086200
     37 H8          -7.0850    -4.9580    39.3560 hc         1 W47       0.086200
     38 H9          -4.1780    -3.6530    42.3060 h1         1 W47       0.039200
     39 H10         -5.7900    -2.9660    42.2780 h1         1 W47       0.039200
     40 H11         -5.9970    -6.9490    40.2820 ha         1 W47       0.139000
     41 H12         -4.4720    -8.7810    39.6130 ha         1 W47       0.155000
     42 H13         -1.2310    -5.9720    39.4280 ha         1 W47       0.169000
     43 H14         -4.2060    -5.7080    37.2440 ha         1 W47       0.166000
     44 H15         -5.5420    -2.7960    34.0020 ha         1 W47       0.148000
     45 H16         -5.4260    -4.7210    43.9530 hn         1 W47       0.341800
     46 H17         -6.6170    -5.1210    42.9360 hn         1 W47       0.341800
     47 H19         -3.1410    -2.8250    34.4090 hn         1 W47       0.319700
     48 O14         -5.1750    -3.3780    38.4140 os         1 W47      -0.263900
@<TRIPOS>BOND
     1     1    10 1   
     2     1    30 1   
     3     1    31 1   
     4     1    32 1   
     5     2     3 ar  
     6     2    17 1   
     7     2    21 ar  
     8     3     4 ar  
     9     3    33 1   
    10     4     5 ar  
    11     4    34 1   
    12     5    20 ar  
    13     5    48 1   
    14     6     7 1   
    15     6     8 1   
    16     6    35 1   
    17     6    48 1   
    18     7     8 1   
    19     7    36 1   
    20     7    37 1   
    21     8     9 1   
    22     8    11 1   
    23     9    27 1   
    24     9    38 1   
    25     9    39 1   
    26    10    18 1   
    27    10    29 2   
    28    11    12 ar  
    29    11    16 ar  
    30    12    13 ar  
    31    12    40 1   
    32    13    14 ar  
    33    13    41 1   
    34    14    15 ar  
    35    14    22 1   
    36    15    16 ar  
    37    15    42 1   
    38    16    23 1   
    39    17    24 1   
    40    17    25 1   
    41    17    26 1   
    42    18    19 2   
    43    18    43 1   
    44    19    20 1   
    45    19    28 1   
    46    20    21 ar  
    47    21    44 1   
    48    27    45 1   
    49    27    46 1   
    50    28    29 1   
    51    28    47 1   
@<TRIPOS>SUBSTRUCTURE
     1 W47         1 TEMP              0 ****  ****    0 ROOT
