@<TRIPOS>MOLECULE
W49
   43    46     1     0     0
SMALL
abcg2


@<TRIPOS>ATOM
      1 C1         -15.3830     1.1580   -38.4920 c3         1 W49       0.169000
      2 C2         -14.3320     3.1410   -37.4110 cc         1 W49       0.025600
      3 C3         -14.0130     4.4520   -37.3400 cd         1 W49      -0.252400
      4 C7         -12.0660     4.5590   -35.7930 ca         1 W49      -0.110000
      5 C8         -11.4100     5.0960   -34.6740 ca         1 W49       0.133000
      6 C9         -11.9390     6.0840   -33.8910 ca         1 W49      -0.070000
      7 C10        -13.2040     6.5520   -34.2630 ca         1 W49      -0.189900
      8 C11        -14.1110     7.5150   -33.7390 cc         1 W49       0.407800
      9 C12        -13.8660     6.0300   -35.3820 ca         1 W49      -0.037200
     10 C13        -13.9270     8.3320   -32.5960 cg         1 W49      -0.133200
     11 C14        -13.7340     9.0060   -31.6190 c1         1 W49      -0.207000
     12 C15        -16.8870     1.0670   -38.3480 ca         1 W49      -0.112300
     13 C16        -17.6150     0.2530   -39.2070 ca         1 W49      -0.089500
     14 C19        -18.9320     1.6360   -37.2010 ca         1 W49      -0.108000
     15 C20        -17.5560     1.7550   -37.3400 ca         1 W49      -0.089500
     16 F          -10.1940     4.6070   -34.3810 f          1 W49      -0.180000
     17 N3         -15.0560     6.6780   -35.4410 na         1 W49      -0.031400
     18 N2         -15.2080     7.5610   -34.4700 nd         1 W49      -0.485100
     19 C6         -13.3100     5.0130   -36.1760 ca         1 W49      -0.004800
     20 C4         -14.3450     5.3130   -38.4560 c          1 W49       0.589200
     21 O          -14.1220     6.5070   -38.5150 o          1 W49      -0.519000
     22 N1         -14.9530     4.6500   -39.5040 ns         1 W49      -0.467500
     23 C5         -15.2830     3.3220   -39.5870 c          1 W49       0.614000
     24 O1         -15.8250     2.8490   -40.5600 o          1 W49      -0.537000
     25 N          -14.9490     2.5680   -38.4760 n          1 W49      -0.304000
     26 C          -14.6770     0.3110   -37.4440 c3         1 W49      -0.108100
     27 C18        -19.6540     0.8200   -38.0630 ca         1 W49      -0.097000
     28 C17        -18.9910     0.1250   -39.0660 ca         1 W49      -0.108000
     29 H1         -15.1030     0.7660   -39.4700 h1         1 W49       0.086700
     30 H2         -14.1040     2.4860   -36.5840 h4         1 W49       0.215000
     31 H3         -11.5730     3.7880   -36.3710 ha         1 W49       0.130000
     32 H4         -11.4090     6.4770   -33.0330 ha         1 W49       0.144000
     33 H5         -13.5660     9.6060   -30.7530 ha         1 W49       0.260000
     34 H6         -17.1050    -0.2840   -39.9980 ha         1 W49       0.112500
     35 H7         -19.4410     2.1810   -36.4170 ha         1 W49       0.117000
     36 H8         -17.0110     2.3950   -36.6550 ha         1 W49       0.112500
     37 H9         -15.7960     6.5600   -36.1150 hn         1 W49       0.386000
     38 H10        -15.1930     5.2060   -40.3160 hn         1 W49       0.346500
     39 H11        -14.9520    -0.7280   -37.6160 hc         1 W49       0.053367
     40 H12        -13.5920     0.3860   -37.5270 hc         1 W49       0.053367
     41 H13        -14.9750     0.5580   -36.4250 hc         1 W49       0.053367
     42 H14        -20.7270     0.7290   -37.9560 ha         1 W49       0.117000
     43 H15        -19.5440    -0.5090   -39.7450 ha         1 W49       0.117000
@<TRIPOS>BOND
     1     1    12 1   
     2     1    25 1   
     3     1    26 1   
     4     1    29 1   
     5     2     3 2   
     6     2    25 1   
     7     2    30 1   
     8     3    19 1   
     9     3    20 1   
    10     4     5 ar  
    11     4    19 ar  
    12     4    31 1   
    13     5     6 ar  
    14     5    16 1   
    15     6     7 ar  
    16     6    32 1   
    17     7     8 1   
    18     7     9 ar  
    19     8    10 1   
    20     8    18 2   
    21     9    17 1   
    22     9    19 ar  
    23    10    11 3   
    24    11    33 1   
    25    12    13 ar  
    26    12    15 ar  
    27    13    28 ar  
    28    13    34 1   
    29    14    15 ar  
    30    14    27 ar  
    31    14    35 1   
    32    15    36 1   
    33    17    18 1   
    34    17    37 1   
    35    20    21 2   
    36    20    22 1   
    37    22    23 1   
    38    22    38 1   
    39    23    24 2   
    40    23    25 1   
    41    26    39 1   
    42    26    40 1   
    43    26    41 1   
    44    27    28 ar  
    45    27    42 1   
    46    28    43 1   
@<TRIPOS>SUBSTRUCTURE
     1 W49         1 TEMP              0 ****  ****    0 ROOT
