@<TRIPOS>MOLECULE
W49
   43    46     1     0     0
SMALL
No Charge or Current Charge


@<TRIPOS>ATOM
      1 C1         -15.3430     1.1920   -38.6540 c3         1 W49       0.169000
      2 C2         -14.4670     3.1970   -37.3570 cc         1 W49       0.025600
      3 C3         -14.2730     4.5620   -37.2010 cd         1 W49      -0.252400
      4 C7         -12.7020     4.2070   -35.2510 ca         1 W49      -0.110000
      5 C8         -12.0680     4.6260   -34.0590 ca         1 W49       0.133000
      6 C9         -12.2980     5.9080   -33.5310 ca         1 W49      -0.070000
      7 C10        -13.1630     6.7430   -34.2460 ca         1 W49      -0.189900
      8 C11        -13.6470     8.0710   -33.9710 cc         1 W49       0.407800
      9 C12        -13.7660     6.3530   -35.4090 ca         1 W49      -0.037200
     10 C13        -13.2960     8.8890   -32.8580 cg         1 W49      -0.133200
     11 C14        -12.9780     9.5630   -31.8970 c1         1 W49      -0.207000
     12 C15        -16.8270     0.8930   -38.4320 ca         1 W49      -0.112300
     13 C16        -17.5820     0.2580   -39.4400 ca         1 W49      -0.089500
     14 C19        -18.8230     0.9750   -37.0240 ca         1 W49      -0.108000
     15 C20        -17.4590     1.2500   -37.2220 ca         1 W49      -0.089500
     16 F          -11.2360     3.7800   -33.4130 f          1 W49      -0.180000
     17 N3         -14.5720     7.4110   -35.7850 na         1 W49      -0.031400
     18 N2         -14.5090     8.4970   -34.9010 nd         1 W49      -0.485100
     19 C6         -13.5830     5.0630   -35.9710 ca         1 W49      -0.004800
     20 C4         -14.6460     5.4480   -38.3460 c          1 W49       0.589200
     21 O          -14.4650     6.6510   -38.4030 o          1 W49      -0.519000
     22 N1         -15.2250     4.8120   -39.3940 ns         1 W49      -0.467500
     23 C5         -15.4690     3.4920   -39.5600 c          1 W49       0.614000
     24 O1         -16.0030     3.0910   -40.5810 o          1 W49      -0.537000
     25 N          -15.0480     2.6520   -38.5120 n          1 W49      -0.304000
     26 C          -14.4780     0.2420   -37.7920 c3         1 W49      -0.108100
     27 C18        -19.5670     0.3410   -38.0320 ca         1 W49      -0.097000
     28 C17        -18.9460    -0.0170   -39.2400 ca         1 W49      -0.108000
     29 H1         -15.1030     0.9280   -39.6940 h1         1 W49       0.086700
     30 H2         -14.2420     2.4580   -36.6000 h4         1 W49       0.215000
     31 H3         -12.4710     3.2110   -35.6150 ha         1 W49       0.130000
     32 H4         -11.8270     6.2280   -32.6050 ha         1 W49       0.144000
     33 H5         -12.7010    10.1630   -31.0530 ha         1 W49       0.260000
     34 H6         -17.1130    -0.0220   -40.3810 ha         1 W49       0.112500
     35 H7         -19.3030     1.2530   -36.0880 ha         1 W49       0.117000
     36 H8         -16.8950     1.7430   -36.4330 ha         1 W49       0.112500
     37 H9         -15.1020     7.4620   -36.6550 hn         1 W49       0.386000
     38 H10        -15.5000     5.4030   -40.1620 hn         1 W49       0.346500
     39 H11        -14.6450    -0.7970   -38.1010 hc         1 W49       0.053367
     40 H12        -13.4120     0.4630   -37.9200 hc         1 W49       0.053367
     41 H13        -14.7320     0.3120   -36.7280 hc         1 W49       0.053367
     42 H14        -20.6230     0.1280   -37.8790 ha         1 W49       0.117000
     43 H15        -19.5210    -0.5070   -40.0230 ha         1 W49       0.117000
@<TRIPOS>BOND
     1     1    12 1   
     2     1    25 1   
     3     1    26 1   
     4     1    29 1   
     5     2     3 2   
     6     2    25 1   
     7     2    30 1   
     8     3    19 1   
     9     3    20 1   
    10     4     5 ar  
    11     4    19 ar  
    12     4    31 1   
    13     5     6 ar  
    14     5    16 1   
    15     6     7 ar  
    16     6    32 1   
    17     7     8 1   
    18     7     9 ar  
    19     8    10 1   
    20     8    18 2   
    21     9    17 1   
    22     9    19 ar  
    23    10    11 3   
    24    11    33 1   
    25    12    13 ar  
    26    12    15 ar  
    27    13    28 ar  
    28    13    34 1   
    29    14    15 ar  
    30    14    27 ar  
    31    14    35 1   
    32    15    36 1   
    33    17    18 1   
    34    17    37 1   
    35    20    21 2   
    36    20    22 1   
    37    22    23 1   
    38    22    38 1   
    39    23    24 2   
    40    23    25 1   
    41    26    39 1   
    42    26    40 1   
    43    26    41 1   
    44    27    28 ar  
    45    27    42 1   
    46    28    43 1   
@<TRIPOS>SUBSTRUCTURE
     1 W49         1 TEMP              0 ****  ****    0 ROOT
