@<TRIPOS>MOLECULE
W4A
   46    48     1     0     0
SMALL
No Charge or Current Charge


@<TRIPOS>ATOM
      1 N1          -0.2340     1.9610    -0.0780 nh         1 W4A      -0.799400
      2 C4          -0.9870     2.1530     1.2010 c6         1 W4A       0.183300
      3 C5          -2.5160     2.3800     0.9570 c6         1 W4A       0.161300
      4 C7          -0.5200     3.0370    -1.0770 c6         1 W4A       0.183300
      5 C8          -2.0560     3.2490    -1.2870 c6         1 W4A       0.161300
      6 C10          3.4580     1.3930    -0.1240 ca         1 W4A      -0.076000
      7 C15         -5.3060    -0.9760     0.1200 c3         1 W4A      -0.128400
      8 C17         -4.0080    -3.2220     0.3000 cc         1 W4A      -0.200000
      9 O            0.3140    -3.0680     0.2730 o          1 W4A      -0.573100
     10 C1          -0.4950    -2.1480     0.1890 c          1 W4A       0.548600
     11 C           -1.9730    -2.3390     0.2100 cd         1 W4A       0.047500
     12 C16         -2.6340    -3.5350     0.3180 cc         1 W4A      -0.090000
     13 C14         -4.0960    -1.8620     0.1830 cd         1 W4A       0.165300
     14 O1          -2.8530    -1.2770     0.1240 os         1 W4A      -0.247000
     15 C2           1.0770    -0.1110     0.0180 ca         1 W4A      -0.019000
     16 C11          2.3330    -0.7580     0.0330 ca         1 W4A      -0.086000
     17 C12          3.5310    -0.0130    -0.0440 ca         1 W4A      -0.179300
     18 F2           5.8890     0.0190    -0.5220 f          1 W4A      -0.113333
     19 F1           5.2390    -1.0670     1.2450 f          1 W4A      -0.113333
     20 F            4.8640    -1.8800    -0.7360 f          1 W4A      -0.113333
     21 C9           2.2120     2.0390    -0.1390 ca         1 W4A      -0.125000
     22 C3           1.0190     1.2990    -0.0690 ca         1 W4A       0.222000
     23 N2          -2.7900     3.4910    -0.0060 n3         1 W4A      -0.717600
     24 H1          -0.8630     1.2780     1.8560 h1         1 W4A       0.048450
     25 H2          -0.5830     3.0210     1.7410 h1         1 W4A       0.048450
     26 H3          -2.9500     1.4420     0.5800 h1         1 W4A       0.039950
     27 H4          -2.9960     2.5870     1.9240 h1         1 W4A       0.039950
     28 H5          -4.7330     3.9410     0.7410 h1         1 W4A       0.031367
     29 H6          -4.4020     4.5680    -0.8880 h1         1 W4A       0.031367
     30 H7          -4.7140     2.8320    -0.6510 h1         1 W4A       0.031367
     31 H8          -0.0760     3.9860    -0.7420 h1         1 W4A       0.048450
     32 H9          -0.0650     2.7860    -2.0470 h1         1 W4A       0.048450
     33 H10         -2.2000     4.0950    -1.9750 h1         1 W4A       0.039950
     34 H11         -2.4610     2.3570    -1.7890 h1         1 W4A       0.039950
     35 H12          4.3640     1.9940    -0.1700 ha         1 W4A       0.133000
     36 H13         -5.4090    -0.3920     1.0420 hc         1 W4A       0.058033
     37 H14         -5.2330    -0.2740    -0.7190 hc         1 W4A       0.058033
     38 H15         -6.2210    -1.5650    -0.0110 hc         1 W4A       0.058033
     39 H16         -4.8270    -3.9310     0.3690 ha         1 W4A       0.147000
     40 H17         -2.1980    -4.5260     0.4030 ha         1 W4A       0.160000
     41 H18         -0.9600    -0.1910     0.0050 hn         1 W4A       0.192000
     42 H19          2.3950    -1.8400     0.1020 ha         1 W4A       0.161000
     43 H20          2.1740     3.1230    -0.1950 ha         1 W4A       0.122000
     44 C6          -4.2360     3.7180    -0.2130 c3         1 W4A       0.153100
     45 C13          4.8850    -0.7340    -0.0160 c3         1 W4A       0.357300
     46 N           -0.1600    -0.8100     0.0700 ns         1 W4A      -0.137000
@<TRIPOS>BOND
     1     1     2 1   
     2     1     4 1   
     3     1    22 1   
     4     2     3 1   
     5     2    24 1   
     6     2    25 1   
     7     3    23 1   
     8     3    26 1   
     9     3    27 1   
    10     4     5 1   
    11     4    31 1   
    12     4    32 1   
    13     5    23 1   
    14     5    33 1   
    15     5    34 1   
    16     6    17 ar  
    17     6    21 ar  
    18     6    35 1   
    19     7    13 1   
    20     7    36 1   
    21     7    37 1   
    22     7    38 1   
    23     8    12 1   
    24     8    13 2   
    25     8    39 1   
    26     9    10 2   
    27    10    11 1   
    28    10    46 1   
    29    11    12 2   
    30    11    14 1   
    31    12    40 1   
    32    13    14 1   
    33    15    16 ar  
    34    15    22 ar  
    35    15    46 1   
    36    16    17 ar  
    37    16    42 1   
    38    17    45 1   
    39    18    45 1   
    40    19    45 1   
    41    20    45 1   
    42    21    22 ar  
    43    21    43 1   
    44    23    44 1   
    45    28    44 1   
    46    29    44 1   
    47    30    44 1   
    48    41    46 1   
@<TRIPOS>SUBSTRUCTURE
     1 W4A         1 TEMP              0 ****  ****    0 ROOT
