@<TRIPOS>MOLECULE
W4A
   46    48     1     0     0
SMALL
abcg2


@<TRIPOS>ATOM
      1 N1          -0.3640     1.8610    -0.1810 nh         1 W4A      -0.799400
      2 C4          -0.9390     2.1090     1.1400 c6         1 W4A       0.183300
      3 C5          -2.4180     2.4090     1.0050 c6         1 W4A       0.161300
      4 C7          -0.5650     2.9990    -1.0610 c6         1 W4A       0.183300
      5 C8          -2.0520     3.2700    -1.1880 c6         1 W4A       0.161300
      6 C10          3.3330     1.3980    -0.2350 ca         1 W4A      -0.076000
      7 C15         -5.2150    -1.1240    -0.2880 c3         1 W4A      -0.128400
      8 C17         -3.9570    -3.2970     0.4060 cc         1 W4A      -0.200000
      9 O            0.3200    -2.8760     0.7190 o          1 W4A      -0.573100
     10 C1          -0.5080    -2.0490     0.3720 c          1 W4A       0.548600
     11 C           -1.9320    -2.3890     0.3290 cd         1 W4A       0.047500
     12 C16         -2.5730    -3.5560     0.5960 cc         1 W4A      -0.090000
     13 C14         -4.0620    -1.9910     0.0380 cd         1 W4A       0.165300
     14 O1          -2.8360    -1.4390    -0.0110 os         1 W4A      -0.247000
     15 C2           0.9970    -0.1150    -0.0170 ca         1 W4A      -0.019000
     16 C11          2.2350    -0.7380     0.0340 ca         1 W4A      -0.086000
     17 C12          3.3960     0.0260    -0.0700 ca         1 W4A      -0.179300
     18 F2           5.7520     0.1320    -0.1400 f          1 W4A      -0.113333
     19 F1           4.8650    -1.3450     1.1490 f          1 W4A      -0.113333
     20 F            4.8150    -1.6130    -0.9810 f          1 W4A      -0.113333
     21 C9           2.0910     2.0200    -0.2730 ca         1 W4A      -0.125000
     22 C3           0.9220     1.2890    -0.1550 ca         1 W4A       0.222000
     23 N2          -2.6420     3.5240     0.1100 n3         1 W4A      -0.717600
     24 H1          -0.8080     1.2280     1.7700 h1         1 W4A       0.048450
     25 H2          -0.4280     2.9460     1.6370 h1         1 W4A       0.048450
     26 H3          -2.9380     1.4950     0.6620 h1         1 W4A       0.039950
     27 H4          -2.8220     2.6530     1.9910 h1         1 W4A       0.039950
     28 H5          -4.4490     4.0960     0.9870 h1         1 W4A       0.031367
     29 H6          -4.1830     4.7140    -0.6440 h1         1 W4A       0.031367
     30 H7          -4.6500     3.0230    -0.4070 h1         1 W4A       0.031367
     31 H8          -0.0620     3.9050    -0.6920 h1         1 W4A       0.048450
     32 H9          -0.1530     2.7680    -2.0450 h1         1 W4A       0.048450
     33 H10         -2.1980     4.1460    -1.8250 h1         1 W4A       0.039950
     34 H11         -2.5300     2.4150    -1.6970 h1         1 W4A       0.039950
     35 H12          4.2260     2.0000    -0.3220 ha         1 W4A       0.133000
     36 H13         -5.2930    -0.2870     0.4090 hc         1 W4A       0.058033
     37 H14         -5.1350    -0.7100    -1.2940 hc         1 W4A       0.058033
     38 H15         -6.1370    -1.6990    -0.2300 hc         1 W4A       0.058033
     39 H16         -4.7740    -3.9900     0.5260 ha         1 W4A       0.147000
     40 H17         -2.1150    -4.4850     0.8940 ha         1 W4A       0.160000
     41 H18         -0.9900    -0.1600    -0.2580 hn         1 W4A       0.192000
     42 H19          2.2950    -1.8110     0.1300 ha         1 W4A       0.161000
     43 H20          2.0440     3.0950    -0.3870 ha         1 W4A       0.122000
     44 C6          -4.0460     3.8470     0.0040 c3         1 W4A       0.153100
     45 C13          4.7070    -0.6900    -0.0120 c3         1 W4A       0.357300
     46 N           -0.2260    -0.7730     0.0110 ns         1 W4A      -0.137000
@<TRIPOS>BOND
     1     1     2 1   
     2     1     4 1   
     3     1    22 1   
     4     2     3 1   
     5     2    24 1   
     6     2    25 1   
     7     3    23 1   
     8     3    26 1   
     9     3    27 1   
    10     4     5 1   
    11     4    31 1   
    12     4    32 1   
    13     5    23 1   
    14     5    33 1   
    15     5    34 1   
    16     6    17 ar  
    17     6    21 ar  
    18     6    35 1   
    19     7    13 1   
    20     7    36 1   
    21     7    37 1   
    22     7    38 1   
    23     8    12 1   
    24     8    13 2   
    25     8    39 1   
    26     9    10 2   
    27    10    11 1   
    28    10    46 1   
    29    11    12 2   
    30    11    14 1   
    31    12    40 1   
    32    13    14 1   
    33    15    16 ar  
    34    15    22 ar  
    35    15    46 1   
    36    16    17 ar  
    37    16    42 1   
    38    17    45 1   
    39    18    45 1   
    40    19    45 1   
    41    20    45 1   
    42    21    22 ar  
    43    21    43 1   
    44    23    44 1   
    45    28    44 1   
    46    29    44 1   
    47    30    44 1   
    48    41    46 1   
@<TRIPOS>SUBSTRUCTURE
     1 W4A         1 TEMP              0 ****  ****    0 ROOT
