@<TRIPOS>MOLECULE
W4C
   29    29     1     0     0
SMALL
abcg2


@<TRIPOS>ATOM
      1 C7          -0.6390    15.2870   -36.7470 ca         1 W4C      -0.104000
      2 C8          -0.1720    14.2840   -35.9080 ca         1 W4C       0.135000
      3 C9          -0.9820    13.7140   -34.9370 ca         1 W4C      -0.101000
      4 O1          -5.0800    14.9360   -36.1360 o          1 W4C      -0.586100
      5 C1          -5.9180    17.1610   -34.7720 c3         1 W4C       0.100000
      6 C5          -2.7880    15.1840   -35.6300 ca         1 W4C      -0.126600
      7 C6          -1.9460    15.7280   -36.5990 ca         1 W4C      -0.074000
      8 C4          -4.2290    15.6120   -35.5500 c          1 W4C       0.610700
      9 C3          -3.1870    17.1480   -32.7650 c3         1 W4C       0.139600
     10 C2          -3.5120    17.5580   -34.1890 c3         1 W4C       0.108000
     11 CL1          1.4720    13.7190   -36.0740 cl         1 W4C      -0.195000
     12 C10         -2.2870    14.1720   -34.8150 ca         1 W4C       0.151000
     13 CL          -3.3090    13.4470   -33.5980 cl         1 W4C      -0.182000
     14 N           -4.5190    16.7210   -34.8470 n          1 W4C      -0.396800
     15 C           -6.3070    18.0520   -35.9450 c3         1 W4C      -0.112100
     16 O           -4.3670    17.2370   -31.9660 oh         1 W4C      -0.665000
     17 H1           0.0050    15.7170   -37.5000 ha         1 W4C       0.137000
     18 H2          -0.6100    12.9330   -34.2910 ha         1 W4C       0.147000
     19 H3          -6.0340    17.6890   -33.8280 h1         1 W4C       0.067700
     20 H4          -6.5470    16.2740   -34.7410 h1         1 W4C       0.067700
     21 H5          -2.3200    16.5130   -37.2440 ha         1 W4C       0.130000
     22 H6          -2.7920    16.1290   -32.7480 h1         1 W4C       0.031700
     23 H7          -2.4090    17.8220   -32.3890 h1         1 W4C       0.031700
     24 H8          -2.5890    17.5520   -34.7640 h1         1 W4C       0.057700
     25 H9          -3.8890    18.5810   -34.1980 h1         1 W4C       0.057700
     26 H10         -7.3450    18.3750   -35.8400 hc         1 W4C       0.041033
     27 H11         -5.6760    18.9420   -35.9850 hc         1 W4C       0.041033
     28 H12         -6.2070    17.5140   -36.8890 hc         1 W4C       0.041033
     29 H13         -4.1680    16.8860   -31.0900 ho         1 W4C       0.446000
@<TRIPOS>BOND
     1     1     2 ar  
     2     1     7 ar  
     3     1    17 1   
     4     2     3 ar  
     5     2    11 1   
     6     3    12 ar  
     7     3    18 1   
     8     4     8 2   
     9     5    14 1   
    10     5    15 1   
    11     5    19 1   
    12     5    20 1   
    13     6     7 ar  
    14     6     8 1   
    15     6    12 ar  
    16     7    21 1   
    17     8    14 1   
    18     9    10 1   
    19     9    16 1   
    20     9    22 1   
    21     9    23 1   
    22    10    14 1   
    23    10    24 1   
    24    10    25 1   
    25    12    13 1   
    26    15    26 1   
    27    15    27 1   
    28    15    28 1   
    29    16    29 1   
@<TRIPOS>SUBSTRUCTURE
     1 W4C         1 TEMP              0 ****  ****    0 ROOT
