@<TRIPOS>MOLECULE
W4C
   29    29     1     0     0
SMALL
No Charge or Current Charge


@<TRIPOS>ATOM
      1 C7          -0.6380    15.3820   -36.6660 ca         1 W4C      -0.104000
      2 C8          -0.1160    14.2980   -35.9440 ca         1 W4C       0.135000
      3 C9          -0.9320    13.5880   -35.0510 ca         1 W4C      -0.101000
      4 O1          -5.1370    14.6960   -35.8090 o          1 W4C      -0.586100
      5 C1          -5.9430    17.2090   -34.8190 c3         1 W4C       0.100000
      6 C5          -2.8060    15.0580   -35.5860 ca         1 W4C      -0.126600
      7 C6          -1.9800    15.7600   -36.4920 ca         1 W4C      -0.074000
      8 C4          -4.2480    15.4460   -35.4230 c          1 W4C       0.610700
      9 C3          -3.2190    17.1860   -32.7490 c3         1 W4C       0.139600
     10 C2          -3.5040    17.5620   -34.2260 c3         1 W4C       0.108000
     11 Cl1          1.5650    13.8270   -36.1600 cl         1 W4C      -0.195000
     12 C10         -2.2750    13.9610   -34.8750 ca         1 W4C       0.151000
     13 Cl          -3.2570    13.0630   -33.7190 cl         1 W4C      -0.182000
     14 N           -4.5430    16.7240   -34.8870 n          1 W4C      -0.396800
     15 C           -6.3090    18.1110   -36.0110 c3         1 W4C      -0.112100
     16 O           -4.3700    17.4010   -31.9170 oh         1 W4C      -0.665000
     17 H1          -0.0040    15.9260   -37.3620 ha         1 W4C       0.137000
     18 H2          -0.5240    12.7510   -34.4930 ha         1 W4C       0.147000
     19 H3          -6.0850    17.7790   -33.8920 h1         1 W4C       0.067700
     20 H4          -6.6380    16.3600   -34.7780 h1         1 W4C       0.067700
     21 H5          -2.3830    16.5940   -37.0640 ha         1 W4C       0.130000
     22 H6          -2.9060    16.1340   -32.7030 h1         1 W4C       0.031700
     23 H7          -2.3790    17.7950   -32.3900 h1         1 W4C       0.031700
     24 H8          -2.5640    17.5220   -34.7860 h1         1 W4C       0.057700
     25 H9          -3.8270    18.6110   -34.2560 h1         1 W4C       0.057700
     26 H10         -7.3470    18.4550   -35.9230 hc         1 W4C       0.041033
     27 H11         -5.6560    18.9910   -36.0460 hc         1 W4C       0.041033
     28 H12         -6.2050    17.5630   -36.9550 hc         1 W4C       0.041033
     29 H13         -4.1220    17.1330   -31.0040 ho         1 W4C       0.446000
@<TRIPOS>BOND
     1     1     2 ar  
     2     1     7 ar  
     3     1    17 1   
     4     2     3 ar  
     5     2    11 1   
     6     3    12 ar  
     7     3    18 1   
     8     4     8 2   
     9     5    14 1   
    10     5    15 1   
    11     5    19 1   
    12     5    20 1   
    13     6     7 ar  
    14     6     8 1   
    15     6    12 ar  
    16     7    21 1   
    17     8    14 1   
    18     9    10 1   
    19     9    16 1   
    20     9    22 1   
    21     9    23 1   
    22    10    14 1   
    23    10    24 1   
    24    10    25 1   
    25    12    13 1   
    26    15    26 1   
    27    15    27 1   
    28    15    28 1   
    29    16    29 1   
@<TRIPOS>SUBSTRUCTURE
     1 W4C         1 TEMP              0 ****  ****    0 ROOT
