@<TRIPOS>MOLECULE
W4D
   37    40     1     0     0
SMALL
No Charge or Current Charge


@<TRIPOS>ATOM
      1 C16         13.6160   -16.2750    47.0950 ca         1 W4D      -0.101000
      2 C15         14.3850   -17.0770    47.9540 ca         1 W4D      -0.111000
      3 C17         12.7820   -15.2770    47.6270 ca         1 W4D      -0.111000
      4 C6          16.6740   -10.3930    53.3520 ca         1 W4D      -0.074000
      5 C14         14.3210   -16.8820    49.3450 ca         1 W4D      -0.087500
      6 C18         12.7170   -15.0820    49.0180 ca         1 W4D      -0.087500
      7 C7          17.0610   -11.7190    53.0980 ca         1 W4D      -0.098000
      8 C4          14.3970   -10.9570    52.7600 ca         1 W4D      -0.049000
      9 C20         15.7340    -7.5120    53.8850 cc         1 W4D       0.253900
     10 C23         13.6750    -8.1300    53.3220 cd         1 W4D      -0.152000
     11 C5          15.3350    -9.9930    53.1870 ca         1 W4D       0.002000
     12 C19         14.9510    -8.6000    53.4580 cc         1 W4D      -0.159000
     13 C3          14.7900   -12.2910    52.5060 ca         1 W4D      -0.191600
     14 C13         13.4860   -15.8840    49.8850 ca         1 W4D      -0.109300
     15 C8          16.1280   -12.6790    52.6730 ca         1 W4D       0.171400
     16 C10         15.6650   -14.8460    52.0390 cc         1 W4D       0.498800
     17 C2          13.8030   -13.3050    52.0570 c          1 W4D       0.573600
     18 C12         13.4210   -15.6650    51.3900 c3         1 W4D       0.146300
     19 N21         15.0550    -6.3920    54.0300 nd         1 W4D      -0.520800
     20 N9          16.5980   -13.9780    52.4400 nd         1 W4D      -0.618100
     21 N22         13.7590    -6.7760    53.6770 na         1 W4D      -0.000200
     22 N11         14.3180   -14.5820    51.8490 n          1 W4D      -0.337300
     23 H32         13.6660   -16.4250    46.0180 ha         1 W4D       0.113000
     24 H31         15.0310   -17.8490    47.5430 ha         1 W4D       0.114500
     25 H33         12.1860   -14.6550    46.9630 ha         1 W4D       0.114500
     26 H25         17.4270    -9.6810    53.6790 ha         1 W4D       0.117000
     27 H30         14.9220   -17.5090    50.0010 ha         1 W4D       0.113500
     28 H34         12.0700   -14.3060    49.4210 ha         1 W4D       0.113500
     29 H26         18.1010   -12.0060    53.2320 ha         1 W4D       0.133000
     30 H24         13.3560   -10.6800    52.6230 ha         1 W4D       0.130000
     31 H35         16.7950    -7.5050    54.0970 h4         1 W4D       0.038100
     32 H37         12.7480    -8.6030    53.0200 h4         1 W4D       0.159000
     33 H27         15.9480   -15.8710    51.8320 h5         1 W4D       0.045800
     34 H29         12.3850   -15.4550    51.6840 h1         1 W4D       0.064200
     35 H28         13.7020   -16.5950    51.9030 h1         1 W4D       0.064200
     36 H36         12.9860    -6.1100    53.6890 hn         1 W4D       0.373000
     37 O1          12.6210   -13.0310    51.8860 o          1 W4D      -0.532000
@<TRIPOS>BOND
     1     1     2 ar  
     2     1     3 ar  
     3     1    23 1   
     4     2     5 ar  
     5     2    24 1   
     6     3     6 ar  
     7     3    25 1   
     8     4     7 ar  
     9     4    11 ar  
    10     4    26 1   
    11     5    14 ar  
    12     5    27 1   
    13     6    14 ar  
    14     6    28 1   
    15     7    15 ar  
    16     7    29 1   
    17     8    11 ar  
    18     8    13 ar  
    19     8    30 1   
    20     9    12 1   
    21     9    19 2   
    22     9    31 1   
    23    10    12 2   
    24    10    21 1   
    25    10    32 1   
    26    11    12 1   
    27    13    15 ar  
    28    13    17 1   
    29    14    18 1   
    30    15    20 1   
    31    16    20 2   
    32    16    22 1   
    33    16    33 1   
    34    17    22 1   
    35    17    37 2   
    36    18    22 1   
    37    18    34 1   
    38    18    35 1   
    39    19    21 1   
    40    21    36 1   
@<TRIPOS>SUBSTRUCTURE
     1 W4D         1 TEMP              0 ****  ****    0 ROOT
