@<TRIPOS>MOLECULE
W4D
   37    40     1     0     0
SMALL
abcg2


@<TRIPOS>ATOM
      1 C16         13.3570   -15.6630    47.1490 ca         1 W4D      -0.101000
      2 C15         14.5870   -15.7260    47.7920 ca         1 W4D      -0.111000
      3 C17         12.1890   -15.6360    47.8990 ca         1 W4D      -0.111000
      4 C6          16.6000   -10.6460    53.6420 ca         1 W4D      -0.074000
      5 C14         14.6470   -15.7640    49.1780 ca         1 W4D      -0.087500
      6 C18         12.2530   -15.6650    49.2860 ca         1 W4D      -0.087500
      7 C7          16.9440   -11.9760    53.6150 ca         1 W4D      -0.098000
      8 C4          14.5060   -11.1270    52.5870 ca         1 W4D      -0.049000
      9 C20         15.7860    -7.7010    53.6990 cc         1 W4D       0.253900
     10 C23         13.8830    -8.1540    52.7010 cd         1 W4D      -0.152000
     11 C5          15.3700   -10.1890    53.1290 ca         1 W4D       0.002000
     12 C19         15.0290    -8.7710    53.1710 cc         1 W4D      -0.159000
     13 C3          14.8440   -12.4800    52.5540 ca         1 W4D      -0.191600
     14 C13         13.4790   -15.7320    49.9360 ca         1 W4D      -0.109300
     15 C8          16.0690   -12.9230    53.0690 ca         1 W4D       0.171400
     16 C10         15.5980   -15.0760    52.5450 cc         1 W4D       0.498800
     17 C2          13.9180   -13.4530    51.9830 c          1 W4D       0.573600
     18 C12         13.5400   -15.8020    51.4390 c3         1 W4D       0.146300
     19 N21         15.1630    -6.5480    53.5630 nd         1 W4D      -0.520800
     20 N9          16.4300   -14.2490    53.0570 nd         1 W4D      -0.618100
     21 N22         14.0190    -6.8480    52.9600 na         1 W4D      -0.000200
     22 N11         14.3830   -14.7570    52.0130 n          1 W4D      -0.337300
     23 H32         13.3090   -15.6370    46.0680 ha         1 W4D       0.113000
     24 H31         15.5000   -15.7500    47.2120 ha         1 W4D       0.114500
     25 H33         11.2270   -15.5830    47.4060 ha         1 W4D       0.114500
     26 H25         17.2990    -9.9400    54.0700 ha         1 W4D       0.117000
     27 H30         15.6140   -15.8220    49.6660 ha         1 W4D       0.113500
     28 H34         11.3410   -15.6320    49.8700 ha         1 W4D       0.113500
     29 H26         17.8930   -12.3070    54.0150 ha         1 W4D       0.133000
     30 H24         13.5500   -10.8230    52.1800 ha         1 W4D       0.130000
     31 H35         16.7570    -7.7330    54.1700 h4         1 W4D       0.038100
     32 H37         13.0040    -8.5420    52.2140 h4         1 W4D       0.159000
     33 H27         15.8460   -16.1310    52.5190 h5         1 W4D       0.045800
     34 H29         12.5410   -15.7260    51.8670 h1         1 W4D       0.064200
     35 H28         13.9550   -16.7580    51.7580 h1         1 W4D       0.064200
     36 H36         13.3600    -6.1190    52.7400 hn         1 W4D       0.373000
     37 O1          12.8250   -13.1880    51.5170 o          1 W4D      -0.532000
@<TRIPOS>BOND
     1     1     2 ar  
     2     1     3 ar  
     3     1    23 1   
     4     2     5 ar  
     5     2    24 1   
     6     3     6 ar  
     7     3    25 1   
     8     4     7 ar  
     9     4    11 ar  
    10     4    26 1   
    11     5    14 ar  
    12     5    27 1   
    13     6    14 ar  
    14     6    28 1   
    15     7    15 ar  
    16     7    29 1   
    17     8    11 ar  
    18     8    13 ar  
    19     8    30 1   
    20     9    12 1   
    21     9    19 2   
    22     9    31 1   
    23    10    12 2   
    24    10    21 1   
    25    10    32 1   
    26    11    12 1   
    27    13    15 ar  
    28    13    17 1   
    29    14    18 1   
    30    15    20 1   
    31    16    20 2   
    32    16    22 1   
    33    16    33 1   
    34    17    22 1   
    35    17    37 2   
    36    18    22 1   
    37    18    34 1   
    38    18    35 1   
    39    19    21 1   
    40    21    36 1   
@<TRIPOS>SUBSTRUCTURE
     1 W4D         1 TEMP              0 ****  ****    0 ROOT
