@<TRIPOS>MOLECULE
W4E
   63    67     1     0     0
SMALL
No Charge or Current Charge


@<TRIPOS>ATOM
      1 C18        115.1390    98.6660   101.8370 ca         1 W4E      -0.115300
      2 C23        117.1660    99.4090   100.6810 ca         1 W4E       0.058100
      3 C16        118.8110    97.9540   104.7990 ca         1 W4E      -0.150500
      4 C17        117.5780    97.4730   104.3260 ca         1 W4E      -0.081500
      5 C22        117.0860    98.4300    97.0620 c3         1 W4E       0.146900
      6 C24        119.5670    99.3520   100.5840 ca         1 W4E       0.144100
      7 C15        121.1430   100.0280   104.0440 ca         1 W4E      -0.129500
      8 C14        122.3330   100.1150   103.3000 ca         1 W4E      -0.093000
      9 C21        116.6950    98.8650    99.4670 ca         1 W4E       0.128100
     10 C25        120.6360    99.9740    99.9180 ca         1 W4E      -0.155500
     11 C10        121.1870    99.6150   105.3900 ca         1 W4E       0.106100
     12 C20        115.4210    98.2590    99.4370 ca         1 W4E      -0.193000
     13 C6         116.3770    98.1060   104.7020 ca         1 W4E      -0.107300
     14 C4         114.3110    98.5310   103.1460 c6         1 W4E       0.252800
     15 C12        123.6070    99.3840   105.2430 ca         1 W4E      -0.093000
     16 C3         113.2330    97.6170   100.5470 c6         1 W4E      -0.038100
     17 C9         118.8480    99.0700   105.6550 ca         1 W4E       0.130100
     18 C13        123.5630    99.7890   103.8970 ca         1 W4E      -0.123000
     19 C2         112.3480    98.2910   101.6110 c6         1 W4E       0.190800
     20 C7         116.4190    99.2140   105.5710 ca         1 W4E      -0.081500
     21 C11        122.4180    99.3040   105.9900 ca         1 W4E      -0.129500
     22 C19        114.6450    98.1760   100.6090 ca         1 W4E      -0.032300
     23 C26        121.8520    99.2900    99.7430 ca         1 W4E      -0.084500
     24 C27        122.0020    97.9870   100.2490 ca         1 W4E      -0.142000
     25 C28        120.9370    97.3650   100.9240 ca         1 W4E      -0.084500
     26 C29        119.7180    98.0460   101.0900 ca         1 W4E      -0.155500
     27 C30        116.3880    99.3240   101.8470 ca         1 W4E      -0.068000
     28 C5         115.0390    97.5990   104.1740 c3         1 W4E      -0.024100
     29 C8         117.6520    99.6910   106.0480 ca         1 W4E      -0.150500
     30 N1         112.8980    98.0480   102.9650 n3         1 W4E      -0.754600
     31 O1         120.0400    99.5470   106.1490 os         1 W4E      -0.256200
     32 O2         117.4820    98.9740    98.3330 os         1 W4E      -0.324100
     33 O3         118.3880   100.0420   100.7450 os         1 W4E      -0.240200
     34 H1         119.7320    97.4570   104.5050 ha         1 W4E       0.128500
     35 H2         117.5580    96.6120   103.6610 ha         1 W4E       0.112500
     36 H3         117.8630    98.6160    96.3110 h1         1 W4E       0.042033
     37 H4         116.9340    97.3450    97.1330 h1         1 W4E       0.042033
     38 H5         116.1560    98.8950    96.7110 h1         1 W4E       0.042033
     39 H7         122.3020   100.4400   102.2630 ha         1 W4E       0.116500
     40 H8         120.5180   100.9840    99.5330 ha         1 W4E       0.124500
     41 H9         115.0110    97.8650    98.5120 ha         1 W4E       0.119000
     42 H10        114.2780    99.5390   103.5880 h1         1 W4E       0.041700
     43 H11        124.5600    99.1370   105.7060 ha         1 W4E       0.116500
     44 H12        112.7960    97.7830    99.5530 hc         1 W4E       0.059200
     45 H13        113.2530    96.5310   100.7090 hc         1 W4E       0.059200
     46 H14        124.4820    99.8550   103.3180 ha         1 W4E       0.114000
     47 H15        112.2870    99.3710   101.4060 h1         1 W4E       0.034200
     48 H16        111.3300    97.8830   101.5320 h1         1 W4E       0.034200
     49 H20        115.4970    99.7060   105.8750 ha         1 W4E       0.112500
     50 H21        122.4510    98.9970   107.0320 ha         1 W4E       0.129000
     51 H22        122.6780    99.7710    99.2230 ha         1 W4E       0.110500
     52 H23        122.9440    97.4600   100.1200 ha         1 W4E       0.113000
     53 H24        121.0560    96.3580   101.3180 ha         1 W4E       0.110500
     54 H25        118.8990    97.5620   101.6140 ha         1 W4E       0.124500
     55 H26        116.7710    99.7720   102.7590 ha         1 W4E       0.137000
     56 H27        114.3920    97.4190   105.0390 hc         1 W4E       0.056700
     57 H28        115.1710    96.6120   103.7140 hc         1 W4E       0.056700
     58 H29        117.6820   100.5450   106.7200 ha         1 W4E       0.128500
     59 C1         111.9760    98.5010   104.0350 c3         1 W4E       0.167100
     60 H6         120.1960   100.2870   103.5780 ha         1 W4E       0.129000
     61 H17        112.3420    98.2180   105.0300 h1         1 W4E       0.029700
     62 H18        111.8600    99.5930   104.0110 h1         1 W4E       0.029700
     63 H19        110.9830    98.0500   103.9060 h1         1 W4E       0.029700
@<TRIPOS>BOND
     1     1    14 1   
     2     1    22 ar  
     3     1    27 ar  
     4     2     9 ar  
     5     2    27 ar  
     6     2    33 1   
     7     3     4 ar  
     8     3    17 ar  
     9     3    34 1   
    10     4    13 ar  
    11     4    35 1   
    12     5    32 1   
    13     5    36 1   
    14     5    37 1   
    15     5    38 1   
    16     6    10 ar  
    17     6    26 ar  
    18     6    33 1   
    19     7     8 ar  
    20     7    11 ar  
    21     7    60 1   
    22     8    18 ar  
    23     8    39 1   
    24     9    12 ar  
    25     9    32 1   
    26    10    23 ar  
    27    10    40 1   
    28    11    21 ar  
    29    11    31 1   
    30    12    22 ar  
    31    12    41 1   
    32    13    20 ar  
    33    13    28 1   
    34    14    28 1   
    35    14    30 1   
    36    14    42 1   
    37    15    18 ar  
    38    15    21 ar  
    39    15    43 1   
    40    16    19 1   
    41    16    22 1   
    42    16    44 1   
    43    16    45 1   
    44    17    29 ar  
    45    17    31 1   
    46    18    46 1   
    47    19    30 1   
    48    19    47 1   
    49    19    48 1   
    50    20    29 ar  
    51    20    49 1   
    52    21    50 1   
    53    23    24 ar  
    54    23    51 1   
    55    24    25 ar  
    56    24    52 1   
    57    25    26 ar  
    58    25    53 1   
    59    26    54 1   
    60    27    55 1   
    61    28    56 1   
    62    28    57 1   
    63    29    58 1   
    64    30    59 1   
    65    59    61 1   
    66    59    62 1   
    67    59    63 1   
@<TRIPOS>SUBSTRUCTURE
     1 W4E         1 TEMP              0 ****  ****    0 ROOT
