@<TRIPOS>MOLECULE
W4E
   63    67     1     0     0
SMALL
abcg2


@<TRIPOS>ATOM
      1 C18        115.1260    98.6900   101.8260 ca         1 W4E      -0.115300
      2 C23        117.0770    99.4060   100.5980 ca         1 W4E       0.058100
      3 C16        118.8150    98.0860   104.5810 ca         1 W4E      -0.150500
      4 C17        117.5860    97.6220   104.1300 ca         1 W4E      -0.081500
      5 C22        117.0620    98.0820    97.2150 c3         1 W4E       0.146900
      6 C24        119.4250    99.5130   100.4610 ca         1 W4E       0.144100
      7 C15        121.2520   100.1470   104.1230 ca         1 W4E      -0.129500
      8 C14        122.4670   100.1590   103.4550 ca         1 W4E      -0.093000
      9 C21        116.6440    98.7130    99.4590 ca         1 W4E       0.128100
     10 C25        120.5030   100.2720   100.0160 ca         1 W4E      -0.155500
     11 C10        121.1680    99.5340   105.3680 ca         1 W4E       0.106100
     12 C20        115.4350    98.0360    99.5200 ca         1 W4E      -0.193000
     13 C6         116.3880    98.1190   104.6300 ca         1 W4E      -0.107300
     14 C4         114.3680    98.6260   103.1300 c6         1 W4E       0.252800
     15 C12        123.4930    98.9600   105.2630 ca         1 W4E      -0.093000
     16 C3         113.3290    97.3720   100.7340 c6         1 W4E      -0.038100
     17 C9         118.8520    99.0760   105.5550 ca         1 W4E       0.130100
     18 C13        123.5900    99.5660   104.0180 ca         1 W4E      -0.123000
     19 C2         112.4300    98.1750   101.6540 c6         1 W4E       0.190800
     20 C7         116.4540    99.1060   105.6120 ca         1 W4E      -0.081500
     21 C11        122.2810    98.9360   105.9400 ca         1 W4E      -0.129500
     22 C19        114.6780    98.0230   100.6920 ca         1 W4E      -0.032300
     23 C26        121.7590    99.6940    99.9270 ca         1 W4E      -0.084500
     24 C27        121.9530    98.3630   100.2780 ca         1 W4E      -0.142000
     25 C28        120.8720    97.6190   100.7270 ca         1 W4E      -0.084500
     26 C29        119.6060    98.1840   100.8230 ca         1 W4E      -0.155500
     27 C30        116.3270    99.3970   101.7530 ca         1 W4E      -0.068000
     28 C5         115.0600    97.6510   104.1160 c3         1 W4E      -0.024100
     29 C8         117.6670    99.5890   106.0710 ca         1 W4E      -0.150500
     30 N1         112.9810    98.1880   102.9890 n3         1 W4E      -0.754600
     31 O1         120.0090    99.5550   106.0950 os         1 W4E      -0.256200
     32 O2         117.4420    98.7850    98.3810 os         1 W4E      -0.324100
     33 O3         118.2240   100.1540   100.5390 os         1 W4E      -0.240200
     34 H1         119.7270    97.6720   104.1700 ha         1 W4E       0.128500
     35 H2         117.5670    96.8550   103.3640 ha         1 W4E       0.112500
     36 H3         117.8490    98.2490    96.4840 h1         1 W4E       0.042033
     37 H4         116.9720    97.0080    97.3980 h1         1 W4E       0.042033
     38 H5         116.1170    98.4500    96.8060 h1         1 W4E       0.042033
     39 H7         122.5330   100.6360   102.4870 ha         1 W4E       0.116500
     40 H8         120.3520   101.3080    99.7380 ha         1 W4E       0.124500
     41 H9         115.0460    97.5220    98.6500 ha         1 W4E       0.119000
     42 H10        114.4000    99.6330   103.5750 h1         1 W4E       0.041700
     43 H11        124.3620    98.4960   105.7120 ha         1 W4E       0.116500
     44 H12        112.8990    97.3190    99.7330 hc         1 W4E       0.059200
     45 H13        113.4020    96.3450   101.1060 hc         1 W4E       0.059200
     46 H14        124.5350    99.5810   103.4910 ha         1 W4E       0.114000
     47 H15        112.2860    99.1850   101.2330 h1         1 W4E       0.034200
     48 H16        111.4400    97.7140   101.7040 h1         1 W4E       0.034200
     49 H20        115.5370    99.5130   106.0250 ha         1 W4E       0.112500
     50 H21        122.2000    98.4640   106.9110 ha         1 W4E       0.129000
     51 H22        122.5920   100.2900    99.5770 ha         1 W4E       0.110500
     52 H23        122.9350    97.9160   100.2050 ha         1 W4E       0.113000
     53 H24        121.0070    96.5820   101.0080 ha         1 W4E       0.110500
     54 H25        118.7780    97.5850   101.1780 ha         1 W4E       0.124500
     55 H26        116.6830    99.9630   102.6050 ha         1 W4E       0.137000
     56 H27        114.3820    97.5030   104.9610 hc         1 W4E       0.056700
     57 H28        115.1590    96.6820   103.6210 hc         1 W4E       0.056700
     58 H29        117.7010   100.3570   106.8340 ha         1 W4E       0.128500
     59 C1         112.1110    98.8380   103.9410 c3         1 W4E       0.167100
     60 H6         120.3810   100.6160   103.6800 ha         1 W4E       0.129000
     61 H17        112.4980    98.7270   104.9550 h1         1 W4E       0.029700
     62 H18        111.9860    99.9150   103.7500 h1         1 W4E       0.029700
     63 H19        111.1220    98.3770   103.9180 h1         1 W4E       0.029700
@<TRIPOS>BOND
     1     1    14 1   
     2     1    22 ar  
     3     1    27 ar  
     4     2     9 ar  
     5     2    27 ar  
     6     2    33 1   
     7     3     4 ar  
     8     3    17 ar  
     9     3    34 1   
    10     4    13 ar  
    11     4    35 1   
    12     5    32 1   
    13     5    36 1   
    14     5    37 1   
    15     5    38 1   
    16     6    10 ar  
    17     6    26 ar  
    18     6    33 1   
    19     7     8 ar  
    20     7    11 ar  
    21     7    60 1   
    22     8    18 ar  
    23     8    39 1   
    24     9    12 ar  
    25     9    32 1   
    26    10    23 ar  
    27    10    40 1   
    28    11    21 ar  
    29    11    31 1   
    30    12    22 ar  
    31    12    41 1   
    32    13    20 ar  
    33    13    28 1   
    34    14    28 1   
    35    14    30 1   
    36    14    42 1   
    37    15    18 ar  
    38    15    21 ar  
    39    15    43 1   
    40    16    19 1   
    41    16    22 1   
    42    16    44 1   
    43    16    45 1   
    44    17    29 ar  
    45    17    31 1   
    46    18    46 1   
    47    19    30 1   
    48    19    47 1   
    49    19    48 1   
    50    20    29 ar  
    51    20    49 1   
    52    21    50 1   
    53    23    24 ar  
    54    23    51 1   
    55    24    25 ar  
    56    24    52 1   
    57    25    26 ar  
    58    25    53 1   
    59    26    54 1   
    60    27    55 1   
    61    28    56 1   
    62    28    57 1   
    63    29    58 1   
    64    30    59 1   
    65    59    61 1   
    66    59    62 1   
    67    59    63 1   
@<TRIPOS>SUBSTRUCTURE
     1 W4E         1 TEMP              0 ****  ****    0 ROOT
