@<TRIPOS>MOLECULE
W4G
   37    40     1     0     0
SMALL
abcg2


@<TRIPOS>ATOM
      1 C02         15.8850   -13.7880    52.0860 c          1 W4G       0.576600
      2 C03         15.6660   -12.3960    52.4450 ca         1 W4G      -0.208600
      3 C04         16.6510   -11.4320    52.2120 ca         1 W4G      -0.035000
      4 C05         16.4330   -10.1200    52.5560 ca         1 W4G      -0.132000
      5 C06         15.2200    -9.7190    53.1500 ca         1 W4G       0.060000
      6 C07         14.2440   -10.6770    53.3790 ca         1 W4G      -0.113000
      7 C08         14.4520   -12.0150    53.0340 ca         1 W4G       0.186400
      8 C10         13.6750   -14.1430    52.9540 cc         1 W4G       0.501800
      9 C13         14.8350   -16.2580    50.5360 ca         1 W4G      -0.110300
     10 C14         13.7230   -15.8260    49.8180 ca         1 W4G      -0.087000
     11 C15         13.6360   -16.0490    48.4520 ca         1 W4G      -0.111500
     12 C16         14.6590   -16.7150    47.7880 ca         1 W4G      -0.100000
     13 C17         15.7680   -17.1530    48.4980 ca         1 W4G      -0.111500
     14 C18         15.8560   -16.9190    49.8650 ca         1 W4G      -0.087000
     15 C19         15.0060    -8.3230    53.5120 cc         1 W4G      -0.170000
     16 C20         15.8900    -7.2300    53.3610 cc         1 W4G       0.259900
     17 C23         13.8850    -7.7530    54.0900 cd         1 W4G      -0.145000
     18 N09         13.4520   -12.9270    53.2860 nd         1 W4G      -0.626100
     19 N11         14.8130   -14.6190    52.3760 n          1 W4G      -0.338300
     20 N21         15.3600    -6.1090    53.8050 nd         1 W4G      -0.520800
     21 N22         14.1520    -6.4520    54.2390 na         1 W4G       0.000800
     22 O01         16.9000   -14.2320    51.5810 o          1 W4G      -0.530000
     23 H041        17.5880   -11.7240    51.7580 ha         1 W4G       0.135000
     24 H051        17.2100    -9.3920    52.3640 ha         1 W4G       0.119000
     25 H071        13.2980   -10.4140    53.8330 ha         1 W4G       0.126000
     26 H101        12.9100   -14.8900    53.1390 h5         1 W4G       0.043800
     27 H122        14.1040   -16.5490    52.5320 h1         1 W4G       0.063700
     28 H121        15.8490   -16.4300    52.4240 h1         1 W4G       0.063700
     29 H141        12.9120   -15.3130    50.3240 ha         1 W4G       0.113500
     30 H151        12.7660   -15.7060    47.9060 ha         1 W4G       0.114500
     31 H161        14.5900   -16.8910    46.7220 ha         1 W4G       0.113000
     32 H171        16.5700   -17.6690    47.9890 ha         1 W4G       0.114500
     33 H181        16.7280   -17.2560    50.4120 ha         1 W4G       0.113500
     34 H201        16.8870    -7.2240    52.9470 h4         1 W4G       0.040100
     35 H231        12.9420    -8.1710    54.4020 h4         1 W4G       0.159000
     36 H221        13.5400    -5.7510    54.6250 hn         1 W4G       0.374000
     37 C12         14.9180   -16.0310    52.0230 c3         1 W4G       0.146300
@<TRIPOS>BOND
     1     1     2 1   
     2     1    19 1   
     3     1    22 2   
     4     2     3 ar  
     5     2     7 ar  
     6     3     4 ar  
     7     3    23 1   
     8     4     5 ar  
     9     4    24 1   
    10     5     6 ar  
    11     5    15 1   
    12     6     7 ar  
    13     6    25 1   
    14     7    18 1   
    15     8    18 2   
    16     8    19 1   
    17     8    26 1   
    18     9    10 ar  
    19     9    14 ar  
    20     9    37 1   
    21    10    11 ar  
    22    10    29 1   
    23    11    12 ar  
    24    11    30 1   
    25    12    13 ar  
    26    12    31 1   
    27    13    14 ar  
    28    13    32 1   
    29    14    33 1   
    30    15    16 1   
    31    15    17 2   
    32    16    20 2   
    33    16    34 1   
    34    17    21 1   
    35    17    35 1   
    36    19    37 1   
    37    20    21 1   
    38    21    36 1   
    39    27    37 1   
    40    28    37 1   
@<TRIPOS>SUBSTRUCTURE
     1 W4G         1 TEMP              0 ****  ****    0 ROOT
