@<TRIPOS>MOLECULE
W4G
   37    40     1     0     0
SMALL
No Charge or Current Charge


@<TRIPOS>ATOM
      1 C02         16.0360   -13.8120    52.3540 c          1 W4G       0.576600
      2 C03         15.8120   -12.3770    52.6620 ca         1 W4G      -0.208600
      3 C04         16.8940   -11.4820    52.7750 ca         1 W4G      -0.035000
      4 C05         16.6640   -10.1290    53.0670 ca         1 W4G      -0.132000
      5 C06         15.3540    -9.6480    53.2490 ca         1 W4G       0.060000
      6 C07         14.2820   -10.5590    53.1310 ca         1 W4G      -0.113000
      7 C08         14.4990   -11.9180    52.8390 ca         1 W4G       0.186400
      8 C10         13.6310   -14.0210    52.4620 cc         1 W4G       0.501800
      9 C13         14.7510   -16.3300    50.4920 ca         1 W4G      -0.110300
     10 C14         13.4760   -16.7290    50.0440 ca         1 W4G      -0.087000
     11 C15         13.2550   -16.9990    48.6830 ca         1 W4G      -0.111500
     12 C16         14.3070   -16.8720    47.7600 ca         1 W4G      -0.100000
     13 C17         15.5800   -16.4740    48.2000 ca         1 W4G      -0.111500
     14 C18         15.8020   -16.2040    49.5620 ca         1 W4G      -0.087000
     15 C19         15.1350    -8.2270    53.5540 cc         1 W4G      -0.170000
     16 C20         16.0640    -7.1830    53.7090 cc         1 W4G       0.259900
     17 C23         13.8980    -7.6800    53.7460 cd         1 W4G      -0.145000
     18 N09         13.3690   -12.7410    52.7410 nd         1 W4G      -0.626100
     19 N11         14.8830   -14.5870    52.2770 n          1 W4G      -0.338300
     20 N21         15.5130    -6.0170    53.9830 nd         1 W4G      -0.520800
     21 N22         14.1510    -6.3250    54.0070 na         1 W4G       0.000800
     22 O01         17.1580   -14.2710    52.1830 o          1 W4G      -0.530000
     23 H041        17.9170   -11.8300    52.6380 ha         1 W4G       0.135000
     24 H051        17.5150    -9.4580    53.1490 ha         1 W4G       0.119000
     25 H071        13.2600   -10.2220    53.2660 ha         1 W4G       0.126000
     26 H101        12.8110   -14.7220    52.3660 h5         1 W4G       0.043800
     27 H122        14.2560   -16.5750    52.5700 h1         1 W4G       0.063700
     28 H121        15.9760   -16.4110    52.2600 h1         1 W4G       0.063700
     29 H141        12.6540   -16.8300    50.7500 ha         1 W4G       0.113500
     30 H151        12.2680   -17.3070    48.3430 ha         1 W4G       0.114500
     31 H161        14.1350   -17.0810    46.7060 ha         1 W4G       0.113000
     32 H171        16.3960   -16.3740    47.4870 ha         1 W4G       0.114500
     33 H181        16.7910   -15.8950    49.8930 ha         1 W4G       0.113500
     34 H201        17.1410    -7.2400    53.6280 h4         1 W4G       0.040100
     35 H231        12.8990    -8.0990    53.7240 h4         1 W4G       0.159000
     36 H221        13.4480    -5.6100    54.1990 hn         1 W4G       0.374000
     37 C12         14.9910   -16.0280    51.9650 c3         1 W4G       0.146300
@<TRIPOS>BOND
     1     1     2 1   
     2     1    19 1   
     3     1    22 2   
     4     2     3 ar  
     5     2     7 ar  
     6     3     4 ar  
     7     3    23 1   
     8     4     5 ar  
     9     4    24 1   
    10     5     6 ar  
    11     5    15 1   
    12     6     7 ar  
    13     6    25 1   
    14     7    18 1   
    15     8    18 2   
    16     8    19 1   
    17     8    26 1   
    18     9    10 ar  
    19     9    14 ar  
    20     9    37 1   
    21    10    11 ar  
    22    10    29 1   
    23    11    12 ar  
    24    11    30 1   
    25    12    13 ar  
    26    12    31 1   
    27    13    14 ar  
    28    13    32 1   
    29    14    33 1   
    30    15    16 1   
    31    15    17 2   
    32    16    20 2   
    33    16    34 1   
    34    17    21 1   
    35    17    35 1   
    36    19    37 1   
    37    20    21 1   
    38    21    36 1   
    39    27    37 1   
    40    28    37 1   
@<TRIPOS>SUBSTRUCTURE
     1 W4G         1 TEMP              0 ****  ****    0 ROOT
