@<TRIPOS>MOLECULE
W4H
   26    26     1     0     0
SMALL
abcg2


@<TRIPOS>ATOM
      1 N1          23.4990    13.4820   -20.6950 ns         1 W4H      -0.512900
      2 C7          23.1650    10.8720   -24.0680 ca         1 W4H      -0.118500
      3 C8          22.5800    11.3940   -25.2180 ca         1 W4H      -0.086000
      4 C9          22.2850    12.7520   -25.2910 ca         1 W4H      -0.118500
      5 C1          25.2890    14.7110   -19.4480 c3         1 W4H      -0.086400
      6 C5          23.1500    13.0660   -23.0580 ca         1 W4H      -0.150600
      7 C6          23.4450    11.7030   -22.9900 ca         1 W4H      -0.071000
      8 C4          23.4480    14.0140   -21.9400 c          1 W4H       0.612700
      9 C3          22.8980    15.4020   -19.3600 c1         1 W4H       0.289900
     10 C2          23.8180    14.2600   -19.5100 c3         1 W4H       0.192800
     11 O           23.6280    15.2140   -22.1370 o          1 W4H      -0.585100
     12 N           22.2000    16.3020   -19.1980 n1         1 W4H      -0.444000
     13 C           25.6420    15.4020   -18.1360 c3         1 W4H      -0.091100
     14 C10         22.5760    13.5850   -24.2200 ca         1 W4H      -0.071000
     15 H1          23.2300    12.5230   -20.5480 hn         1 W4H       0.324500
     16 H3          22.3600    10.7450   -26.0560 ha         1 W4H       0.117000
     17 H4          21.8300    13.1620   -26.1840 ha         1 W4H       0.119000
     18 H5          25.8850    13.8050   -19.5740 hc         1 W4H       0.062700
     19 H6          25.4930    15.3620   -20.2970 hc         1 W4H       0.062700
     20 H7          23.9200    11.2830   -22.1120 ha         1 W4H       0.123500
     21 H8          23.6240    13.6070   -18.6560 h1         1 W4H       0.066700
     22 H9          26.7010    15.6620   -18.1230 hc         1 W4H       0.040700
     23 H10         25.0710    16.3220   -18.0010 hc         1 W4H       0.040700
     24 H11         25.4430    14.7490   -17.2830 hc         1 W4H       0.040700
     25 H12         22.3560    14.6430   -24.2700 ha         1 W4H       0.123500
     26 H2          23.4090     9.8190   -24.0120 ha         1 W4H       0.119000
@<TRIPOS>BOND
     1     1     8 1   
     2     1    10 1   
     3     1    15 1   
     4     2     3 ar  
     5     2     7 ar  
     6     2    26 1   
     7     3     4 ar  
     8     3    16 1   
     9     4    14 ar  
    10     4    17 1   
    11     5    10 1   
    12     5    13 1   
    13     5    18 1   
    14     5    19 1   
    15     6     7 ar  
    16     6     8 1   
    17     6    14 ar  
    18     7    20 1   
    19     8    11 2   
    20     9    10 1   
    21     9    12 3   
    22    10    21 1   
    23    13    22 1   
    24    13    23 1   
    25    13    24 1   
    26    14    25 1   
@<TRIPOS>SUBSTRUCTURE
     1 W4H         1 TEMP              0 ****  ****    0 ROOT
