@<TRIPOS>MOLECULE
W4H
   26    26     1     0     0
SMALL
No Charge or Current Charge


@<TRIPOS>ATOM
      1 N1          23.5640    13.4920   -20.6890 ns         1 W4H      -0.512900
      2 C7          22.7830    10.8170   -23.9630 ca         1 W4H      -0.118500
      3 C8          22.5790    11.3370   -25.2500 ca         1 W4H      -0.086000
      4 C9          22.6340    12.7230   -25.4580 ca         1 W4H      -0.118500
      5 C1          25.2420    14.9550   -19.5240 c3         1 W4H      -0.086400
      6 C5          23.1000    13.0820   -23.0760 ca         1 W4H      -0.150600
      7 C6          23.0420    11.6780   -22.8820 ca         1 W4H      -0.071000
      8 C4          23.3760    14.0480   -21.9400 c          1 W4H       0.612700
      9 C3          22.7560    15.1220   -19.0530 c1         1 W4H       0.289900
     10 C2          23.8700    14.2290   -19.4470 c3         1 W4H       0.192800
     11 O           23.4250    15.2570   -22.1170 o          1 W4H      -0.585100
     12 N           21.8710    15.8060   -18.7210 n1         1 W4H      -0.444000
     13 C           25.7660    15.4680   -18.1630 c3         1 W4H      -0.091100
     14 C10         22.8920    13.5890   -24.3810 ca         1 W4H      -0.071000
     15 H1          23.4980    12.4850   -20.6310 hn         1 W4H       0.324500
     16 H3          22.3790    10.6680   -26.0850 ha         1 W4H       0.117000
     17 H4          22.4760    13.1300   -26.4550 ha         1 W4H       0.119000
     18 H5          25.9830    14.2580   -19.9340 hc         1 W4H       0.062700
     19 H6          25.1850    15.7980   -20.2230 hc         1 W4H       0.062700
     20 H7          23.1950    11.2340   -21.9020 ha         1 W4H       0.123500
     21 H8          23.9510    13.4730   -18.6550 h1         1 W4H       0.066700
     22 H9          26.7580    15.9190   -18.2830 hc         1 W4H       0.040700
     23 H10         25.0970    16.2280   -17.7410 hc         1 W4H       0.040700
     24 H11         25.8520    14.6440   -17.4430 hc         1 W4H       0.040700
     25 H12         22.9290    14.6610   -24.5660 ha         1 W4H       0.123500
     26 H2          22.7420     9.7420   -23.8010 ha         1 W4H       0.119000
@<TRIPOS>BOND
     1     1     8 1   
     2     1    10 1   
     3     1    15 1   
     4     2     3 ar  
     5     2     7 ar  
     6     2    26 1   
     7     3     4 ar  
     8     3    16 1   
     9     4    14 ar  
    10     4    17 1   
    11     5    10 1   
    12     5    13 1   
    13     5    18 1   
    14     5    19 1   
    15     6     7 ar  
    16     6     8 1   
    17     6    14 ar  
    18     7    20 1   
    19     8    11 2   
    20     9    10 1   
    21     9    12 3   
    22    10    21 1   
    23    13    22 1   
    24    13    23 1   
    25    13    24 1   
    26    14    25 1   
@<TRIPOS>SUBSTRUCTURE
     1 W4H         1 TEMP              0 ****  ****    0 ROOT
