@<TRIPOS>MOLECULE
W4I
  150   151     1     0     0
SMALL
No Charge or Current Charge


@<TRIPOS>ATOM
      1 C1A         76.8990    66.5120    18.9850 c          1 W4I       0.594100
      2 C2A         77.4040    67.9530    18.8660 c3         1 W4I      -0.139400
      3 C3A         76.5570    68.8100    17.8940 c3         1 W4I      -0.064400
      4 C4A         75.0980    69.0330    18.3480 c3         1 W4I      -0.046200
      5 C5A         74.2820    69.7370    17.2790 c2         1 W4I      -0.215200
      6 C6A         74.0530    71.0580    17.1800 c2         1 W4I      -0.216200
      7 C7A         74.5780    72.1310    18.1160 c3         1 W4I      -0.014000
      8 C8A         74.0490    73.5070    17.7440 c2         1 W4I      -0.213200
      9 C9A         74.7260    74.6700    17.6740 c2         1 W4I      -0.212200
     10 CAA         76.2000    74.9180    17.9450 c3         1 W4I      -0.011000
     11 CBA         76.3760    76.0370    18.9580 c2         1 W4I      -0.215200
     12 CCA         77.1020    76.0240    20.0920 c2         1 W4I      -0.210200
     13 CDA         77.9310    74.8870    20.6600 c3         1 W4I      -0.013000
     14 CEA         77.7340    74.7730    22.1600 c2         1 W4I      -0.214200
     15 CFA         78.5760    75.1780    23.1290 c2         1 W4I      -0.212200
     16 CGA         79.8940    75.9100    22.9560 c3         1 W4I      -0.010000
     17 CHA         81.0670    74.9990    23.2710 c2         1 W4I      -0.215200
     18 CIA         82.1560    74.7770    22.5110 c2         1 W4I      -0.214200
     19 O1A         76.8920    65.7220    18.0510 o          1 W4I      -0.485000
     20 C2B         74.2660    66.7740    24.4380 c3         1 W4I      -0.133400
     21 C3B         74.7180    68.2540    24.4960 c3         1 W4I      -0.066400
     22 C4B         75.1240    68.8450    23.1250 c3         1 W4I      -0.078400
     23 C5B         75.5500    70.3240    23.2130 c3         1 W4I      -0.042200
     24 C6B         75.8540    70.9060    21.8460 c2         1 W4I      -0.226200
     25 C7B         77.0530    71.0270    21.2500 c2         1 W4I      -0.210200
     26 C8B         78.4110    70.6020    21.7800 c3         1 W4I      -0.012000
     27 C9B         79.3880    71.7540    21.6880 c2         1 W4I      -0.207200
     28 CAB         80.1200    72.1170    20.6200 c2         1 W4I      -0.213200
     29 CBB         80.1440    71.4740    19.2470 c3         1 W4I      -0.008000
     30 CCB         79.5230    72.4020    18.2220 c2         1 W4I      -0.224200
     31 CDB         80.1440    73.3500    17.4970 c2         1 W4I      -0.205200
     32 CEB         81.6110    73.7390    17.5590 c3         1 W4I      -0.018000
     33 CFB         81.7800    75.2450    17.6370 c2         1 W4I      -0.219200
     34 CGB         82.9140    75.9380    17.4270 c2         1 W4I      -0.213200
     35 CHB         84.2790    75.3760    17.0720 c3         1 W4I      -0.045200
     36 CIB         85.3370    75.7000    18.1430 c3         1 W4I      -0.089100
     37 O1B         76.3110    65.5030    24.7360 o          1 W4I      -0.479000
     38 O1G         76.6820    66.1580    20.2910 os         1 W4I      -0.446100
     39 C1G         76.2290    64.8140    20.5620 c3         1 W4I       0.151600
     40 C2G         76.2500    64.5820    22.0920 c3         1 W4I       0.131300
     41 O2G         75.2750    65.4790    22.6800 os         1 W4I      -0.443100
     42 C3G         75.8670    63.1110    22.4430 c3         1 W4I       0.155600
     43 O3G         76.2030    62.7960    23.8120 os         1 W4I      -0.432000
     44 C1D         77.5920    62.5830    24.1230 c6         1 W4I       0.362300
     45 C2D         77.7860    62.4320    25.6690 c6         1 W4I       0.110300
     46 O2D         77.3680    63.6050    26.4140 oh         1 W4I      -0.720000
     47 C3D         79.2810    62.1060    25.9760 c6         1 W4I       0.136300
     48 O3D         79.4480    61.8780    27.3870 oh         1 W4I      -0.667000
     49 C4D         79.7660    60.8680    25.1590 c6         1 W4I       0.149300
     50 O4D         79.1230    59.6850    25.6840 oh         1 W4I      -0.714000
     51 C5D         79.4470    61.1120    23.6450 c6         1 W4I       0.179300
     52 C6D         79.8230    59.9080    22.7370 c3         1 W4I       0.174600
     53 O6D         78.0360    61.3870    23.4550 os         1 W4I      -0.475000
     54 C1E         81.7580    58.6490    21.9280 c6         1 W4I       0.365300
     55 C2E         83.2910    58.4380    22.1730 c6         1 W4I       0.115300
     56 O2E         83.5930    58.2650    23.5800 oh         1 W4I      -0.714000
     57 C3E         84.1090    59.6400    21.6010 c6         1 W4I       0.140300
     58 O3E         85.5200    59.3740    21.7240 oh         1 W4I      -0.673000
     59 C4E         83.7370    59.9240    20.1150 c6         1 W4I       0.147300
     60 O4E         84.2270    58.8460    19.2890 oh         1 W4I      -0.716000
     61 C5E         82.1870    60.1070    20.0180 c6         1 W4I       0.170300
     62 O6E         81.4940    58.9390    20.5370 os         1 W4I      -0.452000
     63 C6E         81.7020    60.3720    18.5550 c3         1 W4I       0.171600
     64 O5E         80.2800    60.6030    18.4590 oh         1 W4I      -0.719000
     65 CJA         82.4540    75.3630    21.1420 c3         1 W4I      -0.048200
     66 CKA         83.2020    76.7050    21.2320 c3         1 W4I      -0.086100
     67 H2A1        78.4340    67.9200    18.4910 hc         1 W4I       0.076700
     68 H2A2        77.4030    68.4210    19.8560 hc         1 W4I       0.076700
     69 H3A1        76.5600    68.3340    16.9050 hc         1 W4I       0.052700
     70 H3A2        77.0400    69.7870    17.7700 hc         1 W4I       0.052700
     71 H4A2        75.1020    69.6070    19.2810 hc         1 W4I       0.050700
     72 H4A1        74.6290    68.0700    18.5860 hc         1 W4I       0.050700
     73 H5A1        73.8540    69.0600    16.5350 ha         1 W4I       0.169000
     74 H6A1        73.4470    71.4340    16.3520 ha         1 W4I       0.169000
     75 H7A1        74.2630    71.9010    19.1410 hc         1 W4I       0.050200
     76 H7A2        75.6730    72.1020    18.1180 hc         1 W4I       0.050200
     77 H8A1        72.9790    73.5120    17.5250 ha         1 W4I       0.169000
     78 H9A1        74.1850    75.5750    17.3880 ha         1 W4I       0.167000
     79 HAA1        76.7110    74.0060    18.2630 hc         1 W4I       0.049200
     80 HAA2        76.6890    75.2110    17.0070 hc         1 W4I       0.049200
     81 HBA1        75.8390    76.9490    18.6890 ha         1 W4I       0.167000
     82 HCA1        77.1320    76.9240    20.7110 ha         1 W4I       0.168000
     83 HDA1        78.9870    75.0470    20.4140 hc         1 W4I       0.050700
     84 HDA2        77.6720    73.9280    20.2000 hc         1 W4I       0.050700
     85 HEA1        76.8070    74.2640    22.4340 ha         1 W4I       0.169000
     86 HFA1        78.3070    75.0070    24.1730 ha         1 W4I       0.170000
     87 HGA2        79.9140    76.7660    23.6410 hc         1 W4I       0.049700
     88 HGA1        79.9760    76.3480    21.9570 hc         1 W4I       0.049700
     89 HHA1        80.9830    74.5000    24.2380 ha         1 W4I       0.165000
     90 HIA1        82.9310    74.0980    22.8720 ha         1 W4I       0.162000
     91 H2B1        73.4290    66.6950    23.7340 hc         1 W4I       0.069700
     92 H2B2        73.9390    66.4740    25.4400 hc         1 W4I       0.069700
     93 H3B2        75.5590    68.3460    25.1950 hc         1 W4I       0.052200
     94 H3B1        73.8980    68.8530    24.9120 hc         1 W4I       0.052200
     95 H4B1        74.2810    68.7540    22.4290 hc         1 W4I       0.044200
     96 H4B2        75.9530    68.2650    22.7000 hc         1 W4I       0.044200
     97 H5B1        76.4120    70.4120    23.8830 hc         1 W4I       0.045200
     98 H5B2        74.7460    70.9050    23.6830 hc         1 W4I       0.045200
     99 H6B1        74.9640    71.2630    21.3270 ha         1 W4I       0.166000
    100 H7B1        77.1060    71.4740    20.2560 ha         1 W4I       0.174000
    101 H8B1        78.3550    70.2470    22.8140 hc         1 W4I       0.051700
    102 H8B2        78.7810    69.7470    21.2040 hc         1 W4I       0.051700
    103 H9B1        79.4710    72.3310    22.6100 ha         1 W4I       0.166000
    104 HAB1        80.7790    72.9810    20.6990 ha         1 W4I       0.166000
    105 HBB2        79.6100    70.5170    19.2380 hc         1 W4I       0.047700
    106 HBB1        81.1780    71.2300    18.9740 hc         1 W4I       0.047700
    107 HCB1        78.4560    72.2310    18.0760 ha         1 W4I       0.166000
    108 HDB1        79.5670    73.9340    16.7770 ha         1 W4I       0.171000
    109 HEB1        82.1210    73.3500    16.6690 hc         1 W4I       0.057700
    110 HEB2        82.1060    73.2780    18.4220 hc         1 W4I       0.057700
    111 HFB1        80.8670    75.7840    17.9010 ha         1 W4I       0.164000
    112 HGB1        82.8990    77.0270    17.5170 ha         1 W4I       0.165000
    113 HHB1        84.6100    75.7920    16.1120 hc         1 W4I       0.045700
    114 HHB2        84.2440    74.2880    16.9400 hc         1 W4I       0.045700
    115 HIB2        86.3160    75.3050    17.8460 hc         1 W4I       0.032700
    116 HIB1        85.4310    76.7840    18.2810 hc         1 W4I       0.032700
    117 HIB3        85.0630    75.2500    19.1050 hc         1 W4I       0.032700
    118 H1G1        75.2140    64.6560    20.1740 h1         1 W4I       0.059700
    119 H1G2        76.8960    64.0810    20.0880 h1         1 W4I       0.059700
    120 H2G1        77.2660    64.8080    22.4410 h1         1 W4I       0.085700
    121 H3G1        74.7880    62.9840    22.2810 h1         1 W4I       0.069200
    122 H3G2        76.3780    62.4230    21.7560 h1         1 W4I       0.069200
    123 H1D1        78.1860    63.4400    23.7710 h2         1 W4I       0.034700
    124 H2D1        77.1770    61.5690    25.9790 h1         1 W4I       0.074700
    125 H2D2        76.9060    64.2110    25.7720 ho         1 W4I       0.520000
    126 H3D1        79.8880    62.9720    25.6690 h1         1 W4I       0.050700
    127 H3D2        78.8890    62.5670    27.8190 ho         1 W4I       0.468000
    128 H4D1        80.8580    60.7870    25.2740 h1         1 W4I       0.072700
    129 H4D2        79.0950    59.8390    26.6590 ho         1 W4I       0.520000
    130 H5D1        80.0190    61.9830    23.2910 h1         1 W4I       0.046700
    131 H6D2        79.4730    60.1230    21.7180 h1         1 W4I       0.058200
    132 H6D1        79.3040    59.0080    23.0920 h1         1 W4I       0.058200
    133 H1E1        81.2380    57.7180    22.2000 h2         1 W4I       0.074700
    134 H2E1        83.5840    57.5320    21.6220 h1         1 W4I       0.064700
    135 H2E2        82.9540    58.8380    24.0680 ho         1 W4I       0.513000
    136 H3E1        83.8490    60.5370    22.1850 h1         1 W4I       0.066700
    137 H3E2        85.6260    58.9630    22.6140 ho         1 W4I       0.468000
    138 H4E1        84.2150    60.8690    19.8150 h1         1 W4I       0.050700
    139 H4E2        85.1040    58.6180    19.6840 ho         1 W4I       0.521000
    140 H5E1        81.9010    60.9840    20.6180 h1         1 W4I       0.061700
    141 H6E2        81.9850    59.5100    17.9360 h1         1 W4I       0.037200
    142 H6E1        82.2490    61.2430    18.1680 h1         1 W4I       0.037200
    143 H5E2        80.0630    60.6570    17.4990 ho         1 W4I       0.505000
    144 HJA1        83.0560    74.6550    20.5580 hc         1 W4I       0.047700
    145 HJA2        81.5310    75.5100    20.5700 hc         1 W4I       0.047700
    146 HKA2        83.3920    77.1060    20.2300 hc         1 W4I       0.032033
    147 HKA1        82.6080    77.4400    21.7890 hc         1 W4I       0.032033
    148 HKA3        84.1640    76.5780    21.7420 hc         1 W4I       0.032033
    149 O5D         81.2540    59.7190    22.7530 os         1 W4I      -0.481000
    150 C1B         75.3970    65.8420    23.9980 c          1 W4I       0.599100
@<TRIPOS>BOND
     1     1     2 1   
     2     1    19 2   
     3     1    38 1   
     4     2     3 1   
     5     2    67 1   
     6     2    68 1   
     7     3     4 1   
     8     3    69 1   
     9     3    70 1   
    10     4     5 1   
    11     4    71 1   
    12     4    72 1   
    13     5     6 2   
    14     5    73 1   
    15     6     7 1   
    16     6    74 1   
    17     7     8 1   
    18     7    75 1   
    19     7    76 1   
    20     8     9 2   
    21     8    77 1   
    22     9    10 1   
    23     9    78 1   
    24    10    11 1   
    25    10    79 1   
    26    10    80 1   
    27    11    12 2   
    28    11    81 1   
    29    12    13 1   
    30    12    82 1   
    31    13    14 1   
    32    13    83 1   
    33    13    84 1   
    34    14    15 2   
    35    14    85 1   
    36    15    16 1   
    37    15    86 1   
    38    16    17 1   
    39    16    87 1   
    40    16    88 1   
    41    17    18 2   
    42    17    89 1   
    43    18    65 1   
    44    18    90 1   
    45    20    21 1   
    46    20    91 1   
    47    20    92 1   
    48    20   150 1   
    49    21    22 1   
    50    21    93 1   
    51    21    94 1   
    52    22    23 1   
    53    22    95 1   
    54    22    96 1   
    55    23    24 1   
    56    23    97 1   
    57    23    98 1   
    58    24    25 2   
    59    24    99 1   
    60    25    26 1   
    61    25   100 1   
    62    26    27 1   
    63    26   101 1   
    64    26   102 1   
    65    27    28 2   
    66    27   103 1   
    67    28    29 1   
    68    28   104 1   
    69    29    30 1   
    70    29   105 1   
    71    29   106 1   
    72    30    31 2   
    73    30   107 1   
    74    31    32 1   
    75    31   108 1   
    76    32    33 1   
    77    32   109 1   
    78    32   110 1   
    79    33    34 2   
    80    33   111 1   
    81    34    35 1   
    82    34   112 1   
    83    35    36 1   
    84    35   113 1   
    85    35   114 1   
    86    36   115 1   
    87    36   116 1   
    88    36   117 1   
    89    37   150 2   
    90    38    39 1   
    91    39    40 1   
    92    39   118 1   
    93    39   119 1   
    94    40    41 1   
    95    40    42 1   
    96    40   120 1   
    97    41   150 1   
    98    42    43 1   
    99    42   121 1   
   100    42   122 1   
   101    43    44 1   
   102    44    45 1   
   103    44    53 1   
   104    44   123 1   
   105    45    46 1   
   106    45    47 1   
   107    45   124 1   
   108    46   125 1   
   109    47    48 1   
   110    47    49 1   
   111    47   126 1   
   112    48   127 1   
   113    49    50 1   
   114    49    51 1   
   115    49   128 1   
   116    50   129 1   
   117    51    52 1   
   118    51    53 1   
   119    51   130 1   
   120    52   131 1   
   121    52   132 1   
   122    52   149 1   
   123    54    55 1   
   124    54    62 1   
   125    54   133 1   
   126    54   149 1   
   127    55    56 1   
   128    55    57 1   
   129    55   134 1   
   130    56   135 1   
   131    57    58 1   
   132    57    59 1   
   133    57   136 1   
   134    58   137 1   
   135    59    60 1   
   136    59    61 1   
   137    59   138 1   
   138    60   139 1   
   139    61    62 1   
   140    61    63 1   
   141    61   140 1   
   142    63    64 1   
   143    63   141 1   
   144    63   142 1   
   145    64   143 1   
   146    65    66 1   
   147    65   144 1   
   148    65   145 1   
   149    66   146 1   
   150    66   147 1   
   151    66   148 1   
@<TRIPOS>SUBSTRUCTURE
     1 W4I         1 TEMP              0 ****  ****    0 ROOT
