@<TRIPOS>MOLECULE
W4I
  150   151     1     0     0
SMALL
abcg2


@<TRIPOS>ATOM
      1 C1A         77.9280    67.1990    19.2100 c          1 W4I       0.594100
      2 C2A         78.6050    68.5280    19.4100 c3         1 W4I      -0.139400
      3 C3A         78.4290    69.4990    18.2550 c3         1 W4I      -0.064400
      4 C4A         77.0080    70.0480    18.1240 c3         1 W4I      -0.046200
      5 C5A         76.8920    70.9910    16.9680 c2         1 W4I      -0.215200
      6 C6A         76.6000    72.2900    16.9950 c2         1 W4I      -0.216200
      7 C7A         76.2720    73.1270    18.1980 c3         1 W4I      -0.014000
      8 C8A         74.8150    73.4950    18.1990 c2         1 W4I      -0.213200
      9 C9A         74.2790    74.7090    18.0870 c2         1 W4I      -0.212200
     10 CAA         75.0020    76.0200    17.9730 c3         1 W4I      -0.011000
     11 CBA         74.7830    76.8440    19.2100 c2         1 W4I      -0.215200
     12 CCA         75.6760    77.1140    20.1600 c2         1 W4I      -0.210200
     13 CDA         77.1050    76.6590    20.2160 c3         1 W4I      -0.013000
     14 CEA         77.2770    75.5720    21.2380 c2         1 W4I      -0.214200
     15 CFA         77.9950    75.6220    22.3590 c2         1 W4I      -0.212200
     16 CGA         78.8300    76.7720    22.8500 c3         1 W4I      -0.010000
     17 CHA         80.2900    76.4710    22.6550 c2         1 W4I      -0.215200
     18 CIA         81.1050    77.0030    21.7460 c2         1 W4I      -0.214200
     19 O1A         77.5260    66.7670    18.1600 o          1 W4I      -0.485000
     20 C2B         76.1490    67.1180    24.2460 c3         1 W4I      -0.133400
     21 C3B         76.6450    68.5410    24.4790 c3         1 W4I      -0.066400
     22 C4B         76.7990    69.3350    23.1880 c3         1 W4I      -0.078400
     23 C5B         77.3220    70.7540    23.4190 c3         1 W4I      -0.042200
     24 C6B         77.4330    71.5200    22.1360 c2         1 W4I      -0.226200
     25 C7B         78.5380    71.7560    21.4310 c2         1 W4I      -0.210200
     26 C8B         79.9420    71.3490    21.7740 c3         1 W4I      -0.012000
     27 C9B         80.7760    72.5510    22.1130 c2         1 W4I      -0.207200
     28 CAB         81.7380    73.1120    21.3830 c2         1 W4I      -0.213200
     29 CBB         82.2460    72.6870    20.0270 c3         1 W4I      -0.008000
     30 CCB         81.1960    72.2960    19.0190 c2         1 W4I      -0.224200
     31 CDB         80.2660    73.1080    18.5210 c2         1 W4I      -0.205200
     32 CEB         80.0890    74.5590    18.8590 c3         1 W4I      -0.018000
     33 CFB         79.8780    75.3840    17.6210 c2         1 W4I      -0.219200
     34 CGB         80.8110    76.0650    16.9570 c2         1 W4I      -0.213200
     35 CHB         82.2650    76.1830    17.2960 c3         1 W4I      -0.045200
     36 CIB         82.7610    77.6250    17.2320 c3         1 W4I      -0.089100
     37 O1B         78.3310    66.2960    23.6810 o          1 W4I      -0.479000
     38 O1G         77.8490    66.5190    20.3540 os         1 W4I      -0.446100
     39 C1G         77.2690    65.2190    20.3190 c3         1 W4I       0.151600
     40 C2G         77.3260    64.6650    21.7280 c3         1 W4I       0.131300
     41 O2G         76.5460    65.5070    22.5780 os         1 W4I      -0.443100
     42 C3G         76.7280    63.2670    21.7770 c3         1 W4I       0.155600
     43 O3G         76.7730    62.7250    23.0810 os         1 W4I      -0.432000
     44 C1D         77.9540    62.1020    23.4330 c6         1 W4I       0.362300
     45 C2D         78.0230    62.0140    24.9560 c6         1 W4I       0.110300
     46 O2D         78.1020    63.2870    25.5490 oh         1 W4I      -0.720000
     47 C3D         79.2850    61.2500    25.3380 c6         1 W4I       0.136300
     48 O3D         79.3710    61.0250    26.7230 oh         1 W4I      -0.667000
     49 C4D         79.3300    59.8900    24.6450 c6         1 W4I       0.149300
     50 O4D         78.3250    59.0280    25.1160 oh         1 W4I      -0.714000
     51 C5D         79.1410    60.0970    23.1450 c6         1 W4I       0.179300
     52 C6D         79.0430    58.7970    22.3610 c3         1 W4I       0.174600
     53 O6D         77.9530    60.8130    22.8770 os         1 W4I      -0.475000
     54 C1E         80.1150    56.6860    22.4700 c6         1 W4I       0.365300
     55 C2E         81.3460    56.0430    23.1190 c6         1 W4I       0.115300
     56 O2E         81.5540    56.4900    24.4370 oh         1 W4I      -0.714000
     57 C3E         82.5960    56.3640    22.3090 c6         1 W4I       0.140300
     58 O3E         83.7290    55.6860    22.7960 oh         1 W4I      -0.673000
     59 C4E         82.3920    55.9400    20.8570 c6         1 W4I       0.147300
     60 O4E         82.2830    54.5430    20.7310 oh         1 W4I      -0.716000
     61 C5E         81.1250    56.5890    20.3200 c6         1 W4I       0.170300
     62 O6E         79.9990    56.2890    21.1340 os         1 W4I      -0.452000
     63 C6E         80.8080    56.1510    18.9060 c3         1 W4I       0.171600
     64 O5E         79.7960    56.9870    18.3940 oh         1 W4I      -0.719000
     65 CJA         80.7880    78.0520    20.7270 c3         1 W4I      -0.048200
     66 CKA         81.7990    79.1940    20.7430 c3         1 W4I      -0.086100
     67 H2A1        79.6710    68.3220    19.5630 hc         1 W4I       0.076700
     68 H2A2        78.2590    68.9780    20.3440 hc         1 W4I       0.076700
     69 H3A1        78.7390    69.0300    17.3170 hc         1 W4I       0.052700
     70 H3A2        79.1100    70.3370    18.4180 hc         1 W4I       0.052700
     71 H4A2        76.7200    70.5260    19.0630 hc         1 W4I       0.050700
     72 H4A1        76.3080    69.2210    17.9710 hc         1 W4I       0.050700
     73 H5A1        77.0910    70.5460    15.9960 ha         1 W4I       0.169000
     74 H6A1        76.5590    72.8210    16.0490 ha         1 W4I       0.169000
     75 H7A1        76.5060    72.5930    19.1220 hc         1 W4I       0.050200
     76 H7A2        76.9020    74.0200    18.1930 hc         1 W4I       0.050200
     77 H8A1        74.1370    72.6510    18.2850 ha         1 W4I       0.169000
     78 H9A1        73.1950    74.7820    18.1070 ha         1 W4I       0.167000
     79 HAA1        76.0640    75.8700    17.7790 hc         1 W4I       0.049200
     80 HAA2        74.6040    76.5660    17.1110 hc         1 W4I       0.049200
     81 HBA1        73.7750    77.2260    19.3400 ha         1 W4I       0.167000
     82 HCA1        75.3480    77.7000    21.0140 ha         1 W4I       0.168000
     83 HDA1        77.7470    77.5100    20.4440 hc         1 W4I       0.050700
     84 HDA2        77.4310    76.2810    19.2430 hc         1 W4I       0.050700
     85 HEA1        76.7450    74.6500    21.0180 ha         1 W4I       0.169000
     86 HFA1        78.0200    74.7290    22.9780 ha         1 W4I       0.170000
     87 HGA2        78.6370    76.9150    23.9170 hc         1 W4I       0.049700
     88 HGA1        78.5490    77.7020    22.3580 hc         1 W4I       0.049700
     89 HHA1        80.6940    75.7010    23.3060 ha         1 W4I       0.165000
     90 HIA1        82.1300    76.6380    21.7230 ha         1 W4I       0.162000
     91 H2B1        75.1880    67.1280    23.7300 hc         1 W4I       0.069700
     92 H2B2        75.9820    66.6210    25.2070 hc         1 W4I       0.069700
     93 H3B2        77.5950    68.5190    25.0180 hc         1 W4I       0.052200
     94 H3B1        75.9330    69.0480    25.1350 hc         1 W4I       0.052200
     95 H4B1        75.8380    69.3770    22.6660 hc         1 W4I       0.044200
     96 H4B2        77.4910    68.8220    22.5130 hc         1 W4I       0.044200
     97 H5B1        78.2840    70.7020    23.9340 hc         1 W4I       0.045200
     98 H5B2        76.6400    71.2800    24.0940 hc         1 W4I       0.045200
     99 H6B1        76.4940    71.8870    21.7280 ha         1 W4I       0.166000
    100 H7B1        78.4470    72.3210    20.5070 ha         1 W4I       0.174000
    101 H8B1        79.9490    70.6620    22.6230 hc         1 W4I       0.051700
    102 H8B2        80.3730    70.8020    20.9330 hc         1 W4I       0.051700
    103 H9B1        80.5360    73.0150    23.0660 ha         1 W4I       0.166000
    104 HAB1        82.2330    73.9810    21.8050 ha         1 W4I       0.166000
    105 HBB2        82.9520    71.8600    20.1480 hc         1 W4I       0.047700
    106 HBB1        82.8410    73.5110    19.6230 hc         1 W4I       0.047700
    107 HCB1        81.2050    71.2660    18.6770 ha         1 W4I       0.166000
    108 HDB1        79.5570    72.7000    17.8060 ha         1 W4I       0.171000
    109 HEB1        80.9390    74.9290    19.4350 hc         1 W4I       0.057700
    110 HEB2        79.2160    74.6670    19.5110 hc         1 W4I       0.057700
    111 HFB1        78.8680    75.3820    17.2190 ha         1 W4I       0.164000
    112 HGB1        80.5040    76.5930    16.0570 ha         1 W4I       0.165000
    113 HHB1        82.8400    75.5830    16.5830 hc         1 W4I       0.045700
    114 HHB2        82.4750    75.7600    18.2810 hc         1 W4I       0.045700
    115 HIB2        83.8290    77.6840    17.4430 hc         1 W4I       0.032700
    116 HIB1        82.5940    78.0550    16.2440 hc         1 W4I       0.032700
    117 HIB3        82.2440    78.2550    17.9570 hc         1 W4I       0.032700
    118 H1G1        76.2360    65.2700    19.9630 h1         1 W4I       0.059700
    119 H1G2        77.8290    64.5620    19.6480 h1         1 W4I       0.059700
    120 H2G1        78.3640    64.6410    22.0660 h1         1 W4I       0.085700
    121 H3G1        75.6770    63.2990    21.4840 h1         1 W4I       0.069200
    122 H3G2        77.2480    62.6310    21.0540 h1         1 W4I       0.069200
    123 H1D1        78.8350    62.6600    23.0640 h2         1 W4I       0.034700
    124 H2D1        77.1440    61.4590    25.3090 h1         1 W4I       0.074700
    125 H2D2        77.2260    63.6830    25.5490 ho         1 W4I       0.520000
    126 H3D1        80.1520    61.8290    24.9800 h1         1 W4I       0.050700
    127 H3D2        79.2060    61.8570    27.1790 ho         1 W4I       0.468000
    128 H4D1        80.3280    59.4610    24.8060 h1         1 W4I       0.072700
    129 H4D2        78.3760    59.0110    26.0770 ho         1 W4I       0.520000
    130 H5D1        80.0130    60.6640    22.7830 h1         1 W4I       0.046700
    131 H6D2        78.9370    59.0230    21.2940 h1         1 W4I       0.058200
    132 H6D1        78.1530    58.2380    22.6720 h1         1 W4I       0.058200
    133 H1E1        79.2000    56.3190    22.9560 h2         1 W4I       0.074700
    134 H2E1        81.1880    54.9580    23.0940 h1         1 W4I       0.064700
    135 H2E2        80.9360    56.0380    25.0210 ho         1 W4I       0.513000
    136 H3E1        82.7580    57.4520    22.3210 h1         1 W4I       0.066700
    137 H3E2        83.7780    55.8210    23.7490 ho         1 W4I       0.468000
    138 H4E1        83.2360    56.3250    20.2640 h1         1 W4I       0.050700
    139 H4E2        83.0370    54.1460    21.1810 ho         1 W4I       0.521000
    140 H5E1        81.3070    57.6730    20.3030 h1         1 W4I       0.061700
    141 H6E2        80.5060    55.0980    18.9010 h1         1 W4I       0.037200
    142 H6E1        81.7300    56.2260    18.3150 h1         1 W4I       0.037200
    143 H5E2        79.5390    56.6510    17.5310 ho         1 W4I       0.505000
    144 HJA1        80.7920    77.5880    19.7340 hc         1 W4I       0.047700
    145 HJA2        79.7830    78.4510    20.8680 hc         1 W4I       0.047700
    146 HKA2        81.5820    79.9210    19.9610 hc         1 W4I       0.032033
    147 HKA1        81.7870    79.7180    21.6990 hc         1 W4I       0.032033
    148 HKA3        82.8130    78.8240    20.5790 hc         1 W4I       0.032033
    149 O5D         80.2180    58.0630    22.6120 os         1 W4I      -0.481000
    150 C1B         77.1430    66.2810    23.4840 c          1 W4I       0.599100
@<TRIPOS>BOND
     1     1     2 1   
     2     1    19 2   
     3     1    38 1   
     4     2     3 1   
     5     2    67 1   
     6     2    68 1   
     7     3     4 1   
     8     3    69 1   
     9     3    70 1   
    10     4     5 1   
    11     4    71 1   
    12     4    72 1   
    13     5     6 2   
    14     5    73 1   
    15     6     7 1   
    16     6    74 1   
    17     7     8 1   
    18     7    75 1   
    19     7    76 1   
    20     8     9 2   
    21     8    77 1   
    22     9    10 1   
    23     9    78 1   
    24    10    11 1   
    25    10    79 1   
    26    10    80 1   
    27    11    12 2   
    28    11    81 1   
    29    12    13 1   
    30    12    82 1   
    31    13    14 1   
    32    13    83 1   
    33    13    84 1   
    34    14    15 2   
    35    14    85 1   
    36    15    16 1   
    37    15    86 1   
    38    16    17 1   
    39    16    87 1   
    40    16    88 1   
    41    17    18 2   
    42    17    89 1   
    43    18    65 1   
    44    18    90 1   
    45    20    21 1   
    46    20    91 1   
    47    20    92 1   
    48    20   150 1   
    49    21    22 1   
    50    21    93 1   
    51    21    94 1   
    52    22    23 1   
    53    22    95 1   
    54    22    96 1   
    55    23    24 1   
    56    23    97 1   
    57    23    98 1   
    58    24    25 2   
    59    24    99 1   
    60    25    26 1   
    61    25   100 1   
    62    26    27 1   
    63    26   101 1   
    64    26   102 1   
    65    27    28 2   
    66    27   103 1   
    67    28    29 1   
    68    28   104 1   
    69    29    30 1   
    70    29   105 1   
    71    29   106 1   
    72    30    31 2   
    73    30   107 1   
    74    31    32 1   
    75    31   108 1   
    76    32    33 1   
    77    32   109 1   
    78    32   110 1   
    79    33    34 2   
    80    33   111 1   
    81    34    35 1   
    82    34   112 1   
    83    35    36 1   
    84    35   113 1   
    85    35   114 1   
    86    36   115 1   
    87    36   116 1   
    88    36   117 1   
    89    37   150 2   
    90    38    39 1   
    91    39    40 1   
    92    39   118 1   
    93    39   119 1   
    94    40    41 1   
    95    40    42 1   
    96    40   120 1   
    97    41   150 1   
    98    42    43 1   
    99    42   121 1   
   100    42   122 1   
   101    43    44 1   
   102    44    45 1   
   103    44    53 1   
   104    44   123 1   
   105    45    46 1   
   106    45    47 1   
   107    45   124 1   
   108    46   125 1   
   109    47    48 1   
   110    47    49 1   
   111    47   126 1   
   112    48   127 1   
   113    49    50 1   
   114    49    51 1   
   115    49   128 1   
   116    50   129 1   
   117    51    52 1   
   118    51    53 1   
   119    51   130 1   
   120    52   131 1   
   121    52   132 1   
   122    52   149 1   
   123    54    55 1   
   124    54    62 1   
   125    54   133 1   
   126    54   149 1   
   127    55    56 1   
   128    55    57 1   
   129    55   134 1   
   130    56   135 1   
   131    57    58 1   
   132    57    59 1   
   133    57   136 1   
   134    58   137 1   
   135    59    60 1   
   136    59    61 1   
   137    59   138 1   
   138    60   139 1   
   139    61    62 1   
   140    61    63 1   
   141    61   140 1   
   142    63    64 1   
   143    63   141 1   
   144    63   142 1   
   145    64   143 1   
   146    65    66 1   
   147    65   144 1   
   148    65   145 1   
   149    66   146 1   
   150    66   147 1   
   151    66   148 1   
@<TRIPOS>SUBSTRUCTURE
     1 W4I         1 TEMP              0 ****  ****    0 ROOT
