@<TRIPOS>MOLECULE
W4J
   44    45     1     0     0
SMALL
No Charge or Current Charge


@<TRIPOS>ATOM
      1 C1         -37.0010   132.3960     8.0140 c3         1 W4J      -0.071400
      2 C2         -36.4500   133.1280     9.2670 c3         1 W4J       0.230600
      3 C3         -37.5430   133.8880    10.0220 ca         1 W4J      -0.110300
      4 C4         -38.3270   134.8650     9.3680 ca         1 W4J      -0.166000
      5 C5         -39.3390   135.5630    10.0680 ca         1 W4J       0.108100
      6 C6         -39.9710   136.8860     8.0760 c3         1 W4J       0.164600
      7 C7         -41.0030   137.9930     7.7160 c6         1 W4J      -0.064700
      8 C8         -40.7800   139.2960     8.5400 c6         1 W4J      -0.070900
      9 C9         -41.8090   140.3910     8.1620 c6         1 W4J      -0.072900
     10 C10        -41.7780   140.6900     6.6440 c6         1 W4J      -0.076400
     11 C11        -42.0040   139.4010     5.8170 c6         1 W4J      -0.072900
     12 C12        -40.9740   138.3070     6.1940 c6         1 W4J      -0.070900
     13 C14        -38.7760   134.3080    12.0880 ca         1 W4J      -0.121000
     14 C15        -37.7740   133.6180    11.3860 ca         1 W4J      -0.118000
     15 C13        -39.5550   135.2740    11.4320 ca         1 W4J       0.138000
     16 O          -35.4250   134.0570     8.8970 oh         1 W4J      -0.644000
     17 C          -36.2130   131.1370     7.5770 c3         1 W4J       0.155800
     18 N          -34.8660   131.4290     7.0500 n8         1 W4J      -0.985200
     19 O1         -40.1270   136.5240     9.4600 os         1 W4J      -0.332100
     20 H1         -37.0890   133.0950     7.1730 hc         1 W4J       0.050200
     21 H2         -38.0220   132.0650     8.2400 hc         1 W4J       0.050200
     22 H3         -36.0340   132.3700     9.9460 h1         1 W4J       0.039700
     23 H4         -38.1350   135.0710     8.3190 ha         1 W4J       0.132000
     24 H5         -40.1470   136.0140     7.4330 h1         1 W4J       0.036200
     25 H6         -38.9580   137.2640     7.8840 h1         1 W4J       0.036200
     26 H7         -41.9920   137.5830     7.9650 hc         1 W4J       0.063700
     27 H8         -40.8580   139.0830     9.6160 hc         1 W4J       0.042700
     28 H9         -39.7620   139.6740     8.3720 hc         1 W4J       0.042700
     29 H10        -41.5990   141.3090     8.7270 hc         1 W4J       0.040450
     30 H11        -42.8170   140.0670     8.4550 hc         1 W4J       0.040450
     31 H12        -40.8110   141.1380     6.3740 hc         1 W4J       0.039200
     32 H13        -42.5470   141.4330     6.3940 hc         1 W4J       0.039200
     33 H14        -41.9310   139.6290     4.7450 hc         1 W4J       0.040450
     34 H15        -43.0220   139.0250     5.9880 hc         1 W4J       0.040450
     35 H16        -41.1850   137.3940     5.6180 hc         1 W4J       0.042700
     36 H17        -39.9670   138.6340     5.8990 hc         1 W4J       0.042700
     37 H18        -38.9520   134.0950    13.1390 ha         1 W4J       0.133000
     38 H19        -37.1770   132.8700    11.9050 ha         1 W4J       0.118000
     39 H20        -35.2000   134.5550     9.7110 ho         1 W4J       0.443000
     40 H21        -36.7790   130.6270     6.7860 h1         1 W4J       0.023700
     41 H22        -36.1180   130.4440     8.4250 h1         1 W4J       0.023700
     42 H23        -34.4730   130.5740     6.6400 hn         1 W4J       0.392500
     43 H24        -34.9520   132.0670     6.2500 hn         1 W4J       0.392500
     44 F          -40.5160   135.9280    12.1250 f          1 W4J      -0.168000
@<TRIPOS>BOND
     1     1     2 1   
     2     1    17 1   
     3     1    20 1   
     4     1    21 1   
     5     2     3 1   
     6     2    16 1   
     7     2    22 1   
     8     3     4 ar  
     9     3    14 ar  
    10     4     5 ar  
    11     4    23 1   
    12     5    15 ar  
    13     5    19 1   
    14     6     7 1   
    15     6    19 1   
    16     6    24 1   
    17     6    25 1   
    18     7     8 1   
    19     7    12 1   
    20     7    26 1   
    21     8     9 1   
    22     8    27 1   
    23     8    28 1   
    24     9    10 1   
    25     9    29 1   
    26     9    30 1   
    27    10    11 1   
    28    10    31 1   
    29    10    32 1   
    30    11    12 1   
    31    11    33 1   
    32    11    34 1   
    33    12    35 1   
    34    12    36 1   
    35    13    14 ar  
    36    13    15 ar  
    37    13    37 1   
    38    14    38 1   
    39    15    44 1   
    40    16    39 1   
    41    17    18 1   
    42    17    40 1   
    43    17    41 1   
    44    18    42 1   
    45    18    43 1   
@<TRIPOS>SUBSTRUCTURE
     1 W4J         1 TEMP              0 ****  ****    0 ROOT
