@<TRIPOS>MOLECULE
W4J
   44    45     1     0     0
SMALL
abcg2


@<TRIPOS>ATOM
      1 C1         -36.9950   132.0820     8.3300 c3         1 W4J      -0.071400
      2 C2         -36.4640   133.2940     9.0940 c3         1 W4J       0.230600
      3 C3         -37.5860   133.9680     9.8600 ca         1 W4J      -0.110300
      4 C4         -38.3740   134.9350     9.2360 ca         1 W4J      -0.166000
      5 C5         -39.4240   135.5460     9.9120 ca         1 W4J       0.108100
      6 C6         -40.0240   136.9240     8.0750 c3         1 W4J       0.164600
      7 C7         -41.0180   138.0200     7.7500 c6         1 W4J      -0.064700
      8 C8         -40.8220   139.2620     8.6210 c6         1 W4J      -0.070900
      9 C9         -41.7860   140.3780     8.2340 c6         1 W4J      -0.072900
     10 C10        -41.6630   140.7330     6.7560 c6         1 W4J      -0.076400
     11 C11        -41.8620   139.5000     5.8820 c6         1 W4J      -0.072900
     12 C12        -40.8970   138.3850     6.2690 c6         1 W4J      -0.070900
     13 C14        -38.9040   134.2080    11.8630 ca         1 W4J      -0.121000
     14 C15        -37.8540   133.6110    11.1720 ca         1 W4J      -0.118000
     15 C13        -39.6680   135.1600    11.2320 ca         1 W4J       0.138000
     16 O          -35.8600   134.1780     8.1780 oh         1 W4J      -0.644000
     17 C          -35.9640   131.0390     7.9180 c3         1 W4J       0.155800
     18 N          -34.9480   131.5450     7.0080 n8         1 W4J      -0.985200
     19 O1         -40.2360   136.4880     9.4090 os         1 W4J      -0.332100
     20 H1         -37.5560   132.4320     7.4550 hc         1 W4J       0.050200
     21 H2         -37.7220   131.5740     8.9680 hc         1 W4J       0.050200
     22 H3         -35.7310   132.9330     9.8310 h1         1 W4J       0.039700
     23 H4         -38.1530   135.2140     8.2140 ha         1 W4J       0.132000
     24 H5         -40.1500   136.0830     7.3820 h1         1 W4J       0.036200
     25 H6         -39.0010   137.3040     7.9560 h1         1 W4J       0.036200
     26 H7         -42.0300   137.6290     7.9200 hc         1 W4J       0.063700
     27 H8         -40.9470   139.0130     9.6770 hc         1 W4J       0.042700
     28 H9         -39.7900   139.6160     8.5020 hc         1 W4J       0.042700
     29 H10        -41.6040   141.2590     8.8540 hc         1 W4J       0.040450
     30 H11        -42.8120   140.0570     8.4430 hc         1 W4J       0.040450
     31 H12        -40.6700   141.1540     6.5660 hc         1 W4J       0.039200
     32 H13        -42.3860   141.5070     6.4900 hc         1 W4J       0.039200
     33 H14        -41.7310   139.7550     4.8280 hc         1 W4J       0.040450
     34 H15        -42.8910   139.1410     5.9910 hc         1 W4J       0.040450
     35 H16        -41.0760   137.5000     5.6520 hc         1 W4J       0.042700
     36 H17        -39.8700   138.7080     6.0630 hc         1 W4J       0.042700
     37 H18        -39.1190   133.9410    12.8900 ha         1 W4J       0.133000
     38 H19        -37.2430   132.8680    11.6700 ha         1 W4J       0.118000
     39 H20        -35.4910   134.9180     8.6720 ho         1 W4J       0.443000
     40 H21        -36.5210   130.1830     7.5110 h1         1 W4J       0.023700
     41 H22        -35.4630   130.6700     8.8190 h1         1 W4J       0.023700
     42 H23        -34.3770   130.7730     6.6880 hn         1 W4J       0.392500
     43 H24        -35.3960   131.9170     6.1800 hn         1 W4J       0.392500
     44 F          -40.6800   135.7530    11.8870 f          1 W4J      -0.168000
@<TRIPOS>BOND
     1     1     2 1   
     2     1    17 1   
     3     1    20 1   
     4     1    21 1   
     5     2     3 1   
     6     2    16 1   
     7     2    22 1   
     8     3     4 ar  
     9     3    14 ar  
    10     4     5 ar  
    11     4    23 1   
    12     5    15 ar  
    13     5    19 1   
    14     6     7 1   
    15     6    19 1   
    16     6    24 1   
    17     6    25 1   
    18     7     8 1   
    19     7    12 1   
    20     7    26 1   
    21     8     9 1   
    22     8    27 1   
    23     8    28 1   
    24     9    10 1   
    25     9    29 1   
    26     9    30 1   
    27    10    11 1   
    28    10    31 1   
    29    10    32 1   
    30    11    12 1   
    31    11    33 1   
    32    11    34 1   
    33    12    35 1   
    34    12    36 1   
    35    13    14 ar  
    36    13    15 ar  
    37    13    37 1   
    38    14    38 1   
    39    15    44 1   
    40    16    39 1   
    41    17    18 1   
    42    17    40 1   
    43    17    41 1   
    44    18    42 1   
    45    18    43 1   
@<TRIPOS>SUBSTRUCTURE
     1 W4J         1 TEMP              0 ****  ****    0 ROOT
