@<TRIPOS>MOLECULE
W4L
   35    35     1     0     0
SMALL
No Charge or Current Charge


@<TRIPOS>ATOM
      1 N1          24.8770    19.0480    34.6410 n3         1 W4L      -0.758600
      2 C7          25.3510    17.9980    36.8690 ca         1 W4L      -0.143300
      3 C8          24.7100    16.7570    36.6990 ca         1 W4L      -0.048000
      4 N2          26.9140    17.0180    38.4520 nb         1 W4L      -0.653000
      5 C9          25.1950    15.6540    37.4190 ca         1 W4L      -0.150000
      6 C1          25.1980    16.7280    30.9680 c3         1 W4L       0.104000
      7 C5          22.7030    20.3080    34.1990 c3         1 W4L      -0.092100
      8 C6          24.8750    19.2310    36.1170 c3         1 W4L       0.226100
      9 C4          24.2090    20.1570    33.9060 c3         1 W4L       0.167800
     10 C3          26.2510    18.7540    34.0950 c3         1 W4L       0.077800
     11 C2          26.3400    18.2490    32.6280 c          1 W4L       0.591100
     12 C10         26.2920    15.8320    38.2770 ca         1 W4L       0.447000
     13 C11         26.4440    18.0790    37.7540 ca         1 W4L       0.350900
     14 O           27.2140    18.6030    31.8450 o          1 W4L      -0.619100
     15 N           25.3400    17.3720    32.2740 ns         1 W4L      -0.499900
     16 C           26.1610    15.5400    30.8020 c3         1 W4L      -0.115100
     17 H2          23.8630    16.6550    36.0230 ha         1 W4L       0.129000
     18 H3          24.7340    14.6760    37.3180 ha         1 W4L       0.141000
     19 H4          25.3850    17.4690    30.1790 h1         1 W4L       0.053700
     20 H5          24.1630    16.3750    30.8630 h1         1 W4L       0.053700
     21 H6          22.2590    21.0370    33.5110 hc         1 W4L       0.039367
     22 H7          22.1860    19.3510    34.0630 hc         1 W4L       0.039367
     23 H8          22.5250    20.6640    35.2190 hc         1 W4L       0.039367
     24 H9          25.5020    20.0920    36.3900 h1         1 W4L       0.047700
     25 H10         23.8620    19.4500    36.4790 h1         1 W4L       0.047700
     26 H11         24.3050    19.9930    32.8250 h1         1 W4L       0.040700
     27 H12         24.7080    21.1110    34.1260 h1         1 W4L       0.040700
     28 H13         26.7310    17.9660    34.6890 h1         1 W4L       0.068200
     29 H14         26.8890    19.6450    34.1710 h1         1 W4L       0.068200
     30 H15         26.9630    19.0240    37.9120 h4         1 W4L       0.026100
     31 H16         24.6440    17.1970    32.9920 hn         1 W4L       0.331500
     32 H17         26.0170    15.0690    29.8220 hc         1 W4L       0.041033
     33 H18         27.2040    15.8690    30.8740 hc         1 W4L       0.041033
     34 H19         25.9800    14.7840    31.5760 hc         1 W4L       0.041033
     35 Cl          26.9300    14.4770    39.1960 cl         1 W4L      -0.176000
@<TRIPOS>BOND
     1     1     8 1   
     2     1     9 1   
     3     1    10 1   
     4     2     3 ar  
     5     2     8 1   
     6     2    13 ar  
     7     3     5 ar  
     8     3    17 1   
     9     4    12 ar  
    10     4    13 ar  
    11     5    12 ar  
    12     5    18 1   
    13     6    15 1   
    14     6    16 1   
    15     6    19 1   
    16     6    20 1   
    17     7     9 1   
    18     7    21 1   
    19     7    22 1   
    20     7    23 1   
    21     8    24 1   
    22     8    25 1   
    23     9    26 1   
    24     9    27 1   
    25    10    11 1   
    26    10    28 1   
    27    10    29 1   
    28    11    14 2   
    29    11    15 1   
    30    12    35 1   
    31    13    30 1   
    32    15    31 1   
    33    16    32 1   
    34    16    33 1   
    35    16    34 1   
@<TRIPOS>SUBSTRUCTURE
     1 W4L         1 TEMP              0 ****  ****    0 ROOT
