@<TRIPOS>MOLECULE
W4L
   35    35     1     0     0
SMALL
abcg2


@<TRIPOS>ATOM
      1 N1          24.9680    19.2510    34.5730 n3         1 W4L      -0.758600
      2 C7          25.4350    17.9710    36.6160 ca         1 W4L      -0.143300
      3 C8          24.8600    16.7590    36.2300 ca         1 W4L      -0.048000
      4 N2          26.9010    16.7820    38.1080 nb         1 W4L      -0.653000
      5 C9          25.3090    15.5740    36.7850 ca         1 W4L      -0.150000
      6 C1          25.3040    16.7160    31.3170 c3         1 W4L       0.104000
      7 C5          22.6580    20.0580    34.0970 c3         1 W4L      -0.092100
      8 C6          24.9670    19.2790    36.0340 c3         1 W4L       0.226100
      9 C4          24.1530    20.3160    33.9770 c3         1 W4L       0.167800
     10 C3          26.3100    19.2110    34.0140 c3         1 W4L       0.077800
     11 C2          26.4170    18.4200    32.7150 c          1 W4L       0.591100
     12 C10         26.3350    15.6620    37.7210 ca         1 W4L       0.447000
     13 C11         26.4550    17.9200    37.5560 ca         1 W4L       0.350900
     14 O           27.4300    18.5030    32.0130 o          1 W4L      -0.619100
     15 N           25.3690    17.6340    32.4410 ns         1 W4L      -0.499900
     16 C           25.7860    15.3140    31.6800 c3         1 W4L      -0.115100
     17 H2          24.0690    16.7480    35.4910 ha         1 W4L       0.129000
     18 H3          24.8880    14.6190    36.5080 ha         1 W4L       0.141000
     19 H4          25.9130    17.1310    30.5140 h1         1 W4L       0.053700
     20 H5          24.2700    16.6850    30.9710 h1         1 W4L       0.053700
     21 H6          22.1020    20.8570    33.6010 hc         1 W4L       0.039367
     22 H7          22.3960    19.1100    33.6240 hc         1 W4L       0.039367
     23 H8          22.3290    20.0230    35.1360 hc         1 W4L       0.039367
     24 H9          25.5820    20.1000    36.4310 h1         1 W4L       0.047700
     25 H10         23.9450    19.4620    36.3660 h1         1 W4L       0.047700
     26 H11         24.4170    20.3690    32.9190 h1         1 W4L       0.040700
     27 H12         24.4110    21.2930    34.4160 h1         1 W4L       0.040700
     28 H13         26.9830    18.7150    34.7160 h1         1 W4L       0.068200
     29 H14         26.7280    20.2100    33.8310 h1         1 W4L       0.068200
     30 H15         26.9440    18.8320    37.8820 h4         1 W4L       0.026100
     31 H16         24.6290    17.6460    33.1310 hn         1 W4L       0.331500
     32 H17         25.7130    14.6530    30.8140 hc         1 W4L       0.041033
     33 H18         26.8270    15.3390    32.0080 hc         1 W4L       0.041033
     34 H19         25.1800    14.8930    32.4840 hc         1 W4L       0.041033
     35 CL          26.9410    14.1800    38.4500 cl         1 W4L      -0.176000
@<TRIPOS>BOND
     1     1     8 1   
     2     1     9 1   
     3     1    10 1   
     4     2     3 ar  
     5     2     8 1   
     6     2    13 ar  
     7     3     5 ar  
     8     3    17 1   
     9     4    12 ar  
    10     4    13 ar  
    11     5    12 ar  
    12     5    18 1   
    13     6    15 1   
    14     6    16 1   
    15     6    19 1   
    16     6    20 1   
    17     7     9 1   
    18     7    21 1   
    19     7    22 1   
    20     7    23 1   
    21     8    24 1   
    22     8    25 1   
    23     9    26 1   
    24     9    27 1   
    25    10    11 1   
    26    10    28 1   
    27    10    29 1   
    28    11    14 2   
    29    11    15 1   
    30    12    35 1   
    31    13    30 1   
    32    15    31 1   
    33    16    32 1   
    34    16    33 1   
    35    16    34 1   
@<TRIPOS>SUBSTRUCTURE
     1 W4L         1 TEMP              0 ****  ****    0 ROOT
