@<TRIPOS>MOLECULE
W4M
   59    62     1     0     0
SMALL
abcg2


@<TRIPOS>ATOM
      1 C10          3.1930    -5.7320    22.8840 ca         1 W4M       0.005000
      2 C13          5.0820    -5.4060    20.8890 ca         1 W4M      -0.050200
      3 C15          1.3240    -6.0690    24.7040 cg         1 W4M      -0.096000
      4 C17          0.6430    -6.2260    27.0580 ca         1 W4M      -0.091000
      5 C20         -2.7310    -6.8060    28.7060 c3         1 W4M       0.218100
      6 C22         -2.4700    -9.2150    28.8640 c6         1 W4M       0.135300
      7 C26         -3.2980    -7.9830    30.7570 c6         1 W4M       0.135300
      8 C28         -1.0160    -6.4760    25.3210 ca         1 W4M      -0.091000
      9 S02          4.8910    -3.0220    18.2300 ss         1 W4M      -0.422000
     10 C03          6.5660    -3.7610    18.2000 c3         1 W4M       0.287500
     11 C04          6.5030    -5.1810    18.7890 c3         1 W4M       0.090600
     12 N05          6.2380    -5.1660    20.2150 na         1 W4M       0.054600
     13 N06          7.2190    -4.8370    21.0830 nc         1 W4M      -0.175400
     14 N07          6.7550    -4.8570    22.2910 nd         1 W4M      -0.209400
     15 C08          5.4250    -5.2060    22.2370 ca         1 W4M       0.007400
     16 C09          4.4840    -5.3680    23.2550 ca         1 W4M      -0.006000
     17 C11          2.8640    -5.9270    21.5080 ca         1 W4M      -0.057000
     18 C12          3.7880    -5.7700    20.5010 ca         1 W4M      -0.108000
     19 C14          2.1850    -5.9150    23.8690 ch         1 W4M      -0.109000
     20 C16          0.3180    -6.2580    25.6900 ca         1 W4M       0.027000
     21 C18         -0.3400    -6.4060    28.0150 ca         1 W4M      -0.098500
     22 C19         -1.6710    -6.6210    27.6480 ca         1 W4M      -0.078300
     23 N21         -2.4410    -7.9340    29.5820 n3         1 W4M      -0.720600
     24 C23         -2.6600   -10.3730    29.8520 c6         1 W4M       0.153600
     25 O24         -2.0550   -10.0760    31.1040 os         1 W4M      -0.445000
     26 C25         -2.7080    -8.9810    31.7580 c6         1 W4M       0.153600
     27 C27         -1.9910    -6.6550    26.2930 ca         1 W4M      -0.098500
     28 N29          7.1410    -3.6940    16.8660 n3         1 W4M      -0.515100
     29 O30          6.5530    -4.7120    16.0380 oh         1 W4M      -0.490300
     30 C31          8.5830    -3.8860    16.8090 c3         1 W4M       0.380800
     31 O32          9.1090    -3.4290    15.5840 oh         1 W4M      -0.639000
     32 H1           1.6700    -6.0580    27.3550 ha         1 W4M       0.120000
     33 H2          -2.7770    -5.9090    29.3300 h1         1 W4M       0.038700
     34 H3          -3.7130    -6.9150    28.2180 h1         1 W4M       0.038700
     35 H5          -3.2950    -9.2420    28.1340 h1         1 W4M       0.040200
     36 H6          -3.3330    -6.9950    31.2180 h1         1 W4M       0.040200
     37 H7          -4.3340    -8.2550    30.4970 h1         1 W4M       0.040200
     38 H8          -1.2800    -6.5060    24.2720 ha         1 W4M       0.120000
     39 H9           4.3990    -0.7300    17.8870 h1         1 W4M       0.068033
     40 H10          5.9220    -0.9040    18.7900 h1         1 W4M       0.068033
     41 H11          5.8880    -1.1820    17.0250 h1         1 W4M       0.068033
     42 H12          7.2010    -3.1440    18.8370 h2         1 W4M       0.096700
     43 H13          5.7290    -5.7720    18.3070 h1         1 W4M       0.083200
     44 H14          7.4570    -5.6830    18.6360 h1         1 W4M       0.083200
     45 H15          4.7460    -5.2150    24.2930 ha         1 W4M       0.141000
     46 H16          1.8490    -6.2080    21.2610 ha         1 W4M       0.124000
     47 H17          3.5200    -5.9180    19.4640 ha         1 W4M       0.131000
     48 H18         -0.0770    -6.3880    29.0650 ha         1 W4M       0.120000
     49 H20         -3.7250   -10.5860    29.9960 h1         1 W4M       0.046700
     50 H21         -2.1840   -11.2770    29.4750 h1         1 W4M       0.046700
     51 H22         -1.9420    -8.4990    32.3670 h1         1 W4M       0.046700
     52 H23         -3.4970    -9.3590    32.4190 h1         1 W4M       0.046700
     53 H24         -3.0180    -6.8270    25.9920 ha         1 W4M       0.120000
     54 H25          5.9810    -4.2190    15.4350 ho         1 W4M       0.468000
     55 H26          8.8500    -4.9380    16.9650 h2         1 W4M       0.055700
     56 H27          9.0200    -3.2750    17.5980 h2         1 W4M       0.055700
     57 H28          8.8600    -4.0600    14.8970 ho         1 W4M       0.452000
     58 C01          5.3330    -1.2850    17.9560 c3         1 W4M       0.049900
     59 H4          -1.5380    -9.3280    28.3090 h1         1 W4M       0.040200
@<TRIPOS>BOND
     1     1    16 ar  
     2     1    17 ar  
     3     1    19 1   
     4     2    12 1   
     5     2    15 ar  
     6     2    18 ar  
     7     3    19 3   
     8     3    20 1   
     9     4    20 ar  
    10     4    21 ar  
    11     4    32 1   
    12     5    22 1   
    13     5    23 1   
    14     5    33 1   
    15     5    34 1   
    16     6    23 1   
    17     6    24 1   
    18     6    35 1   
    19     6    59 1   
    20     7    23 1   
    21     7    26 1   
    22     7    36 1   
    23     7    37 1   
    24     8    20 ar  
    25     8    27 ar  
    26     8    38 1   
    27     9    10 1   
    28     9    58 1   
    29    10    11 1   
    30    10    28 1   
    31    10    42 1   
    32    11    12 1   
    33    11    43 1   
    34    11    44 1   
    35    12    13 1   
    36    13    14 2   
    37    14    15 1   
    38    15    16 ar  
    39    16    45 1   
    40    17    18 ar  
    41    17    46 1   
    42    18    47 1   
    43    21    22 ar  
    44    21    48 1   
    45    22    27 ar  
    46    24    25 1   
    47    24    49 1   
    48    24    50 1   
    49    25    26 1   
    50    26    51 1   
    51    26    52 1   
    52    27    53 1   
    53    28    29 1   
    54    28    30 1   
    55    29    54 1   
    56    30    31 1   
    57    30    55 1   
    58    30    56 1   
    59    31    57 1   
    60    39    58 1   
    61    40    58 1   
    62    41    58 1   
@<TRIPOS>SUBSTRUCTURE
     1 W4M         1 TEMP              0 ****  ****    0 ROOT
