@<TRIPOS>MOLECULE
W4M
   59    62     1     0     0
SMALL
No Charge or Current Charge


@<TRIPOS>ATOM
      1 C10          3.3150    -5.6890    22.9450 ca         1 W4M       0.005000
      2 C13          5.3040    -5.3280    21.0440 ca         1 W4M      -0.050200
      3 C15          1.4280    -6.0240    24.7670 cg         1 W4M      -0.096000
      4 C17          0.6840    -5.9890    27.1140 ca         1 W4M      -0.091000
      5 C20         -2.7160    -6.7170    28.7430 c3         1 W4M       0.218100
      6 C22         -2.4520    -9.1980    28.8580 c6         1 W4M       0.135300
      7 C26         -3.4740    -7.9750    30.7480 c6         1 W4M       0.135300
      8 C28         -0.8980    -6.5700    25.3600 ca         1 W4M      -0.091000
      9 S02          5.0130    -2.9430    18.3600 ss         1 W4M      -0.422000
     10 C03          6.6820    -3.7490    18.2450 c3         1 W4M       0.287500
     11 C04          6.6660    -5.1460    18.9160 c3         1 W4M       0.090600
     12 N05          6.4680    -5.0850    20.3730 na         1 W4M       0.054600
     13 N06          7.4710    -4.7930    21.2850 nc         1 W4M      -0.175400
     14 N07          6.9440    -4.8450    22.5090 nd         1 W4M      -0.209400
     15 C08          5.6040    -5.1770    22.3600 ca         1 W4M       0.007400
     16 C09          4.6270    -5.3520    23.3510 ca         1 W4M      -0.006000
     17 C11          3.0140    -5.8410    21.5670 ca         1 W4M      -0.057000
     18 C12          4.0180    -5.6590    20.5920 ca         1 W4M      -0.108000
     19 C14          2.2950    -5.8740    23.9210 ch         1 W4M      -0.109000
     20 C16          0.4000    -6.1950    25.7520 ca         1 W4M       0.027000
     21 C18         -0.3250    -6.1570    28.0790 ca         1 W4M      -0.098500
     22 C19         -1.6260    -6.5330    27.6910 ca         1 W4M      -0.078300
     23 N21         -2.5060    -7.9020    29.6090 n3         1 W4M      -0.720600
     24 C23         -2.3040   -10.4460    29.7920 c6         1 W4M       0.153600
     25 O24         -2.1760   -10.0610    31.1820 os         1 W4M      -0.445000
     26 C25         -3.2830    -9.2470    31.6410 c6         1 W4M       0.153600
     27 C27         -1.9070    -6.7390    26.3250 ca         1 W4M      -0.098500
     28 N29          7.0410    -3.7330    16.7980 n3         1 W4M      -0.515100
     29 O30          6.1360    -4.6670    16.0560 oh         1 W4M      -0.490300
     30 C31          8.4430    -4.0930    16.5110 c3         1 W4M       0.380800
     31 O32          8.5370    -4.0500    15.1060 oh         1 W4M      -0.639000
     32 H1           1.6850    -5.7000    27.4260 ha         1 W4M       0.120000
     33 H2          -2.7430    -5.8090    29.3620 h1         1 W4M       0.038700
     34 H3          -3.6920    -6.7870    28.2430 h1         1 W4M       0.038700
     35 H5          -3.3650    -9.3250    28.2560 h1         1 W4M       0.040200
     36 H6          -3.3760    -7.0820    31.3830 h1         1 W4M       0.040200
     37 H7          -4.5060    -7.9750    30.3660 h1         1 W4M       0.040200
     38 H8          -1.1270    -6.7330    24.3090 ha         1 W4M       0.120000
     39 H9           4.5540    -0.5790    17.9100 h1         1 W4M       0.068033
     40 H10          6.2030    -0.8070    18.5600 h1         1 W4M       0.068033
     41 H11          5.8530    -1.1980    16.8510 h1         1 W4M       0.068033
     42 H12          7.3920    -3.1150    18.7930 h2         1 W4M       0.096700
     43 H13          5.8780    -5.7620    18.4680 h1         1 W4M       0.083200
     44 H14          7.6220    -5.6490    18.7330 h1         1 W4M       0.083200
     45 H15          4.8780    -5.2290    24.4020 ha         1 W4M       0.141000
     46 H16          2.0040    -6.0970    21.2560 ha         1 W4M       0.124000
     47 H17          3.7940    -5.7680    19.5340 ha         1 W4M       0.131000
     48 H18         -0.0970    -6.0010    29.1310 ha         1 W4M       0.120000
     49 H20         -3.1820   -11.0980    29.6800 h1         1 W4M       0.046700
     50 H21         -1.4170   -11.0260    29.5000 h1         1 W4M       0.046700
     51 H22         -3.0950    -8.9460    32.6810 h1         1 W4M       0.046700
     52 H23         -4.2020    -9.8510    31.6270 h1         1 W4M       0.046700
     53 H24         -2.9060    -7.0320    26.0110 ha         1 W4M       0.120000
     54 H25          5.3580    -4.1130    15.8020 ho         1 W4M       0.468000
     55 H26          8.6690    -5.1070    16.8640 h2         1 W4M       0.055700
     56 H27          9.1380    -3.3730    16.9610 h2         1 W4M       0.055700
     57 H28          7.6130    -4.2850    14.8680 ho         1 W4M       0.452000
     58 C01          5.4500    -1.2120    17.8720 c3         1 W4M       0.049900
     59 H4          -1.6100    -9.1940    28.1520 h1         1 W4M       0.040200
@<TRIPOS>BOND
     1     1    16 ar  
     2     1    17 ar  
     3     1    19 1   
     4     2    12 1   
     5     2    15 ar  
     6     2    18 ar  
     7     3    19 3   
     8     3    20 1   
     9     4    20 ar  
    10     4    21 ar  
    11     4    32 1   
    12     5    22 1   
    13     5    23 1   
    14     5    33 1   
    15     5    34 1   
    16     6    23 1   
    17     6    24 1   
    18     6    35 1   
    19     6    59 1   
    20     7    23 1   
    21     7    26 1   
    22     7    36 1   
    23     7    37 1   
    24     8    20 ar  
    25     8    27 ar  
    26     8    38 1   
    27     9    10 1   
    28     9    58 1   
    29    10    11 1   
    30    10    28 1   
    31    10    42 1   
    32    11    12 1   
    33    11    43 1   
    34    11    44 1   
    35    12    13 1   
    36    13    14 2   
    37    14    15 1   
    38    15    16 ar  
    39    16    45 1   
    40    17    18 ar  
    41    17    46 1   
    42    18    47 1   
    43    21    22 ar  
    44    21    48 1   
    45    22    27 ar  
    46    24    25 1   
    47    24    49 1   
    48    24    50 1   
    49    25    26 1   
    50    26    51 1   
    51    26    52 1   
    52    27    53 1   
    53    28    29 1   
    54    28    30 1   
    55    29    54 1   
    56    30    31 1   
    57    30    55 1   
    58    30    56 1   
    59    31    57 1   
    60    39    58 1   
    61    40    58 1   
    62    41    58 1   
@<TRIPOS>SUBSTRUCTURE
     1 W4M         1 TEMP              0 ****  ****    0 ROOT
