@<TRIPOS>MOLECULE
W4N
   38    39     1     0     0
SMALL
bcc


@<TRIPOS>ATOM
      1 CAK         -3.9590     0.5790     1.0690 ca         1 W4N      -0.120500
      2 CAI         -5.3260     0.3390     1.0890 ca         1 W4N      -0.133000
      3 CAH         -5.9910    -0.0110    -0.0790 ca         1 W4N      -0.142000
      4 CAJ         -5.2780    -0.1150    -1.2660 ca         1 W4N      -0.133000
      5 CAL         -3.9110     0.1300    -1.2800 ca         1 W4N      -0.120500
      6 CAQ         -3.2330     0.4800    -0.1150 ca         1 W4N      -0.054300
      7 CAM         -1.7480     0.7080    -0.1380 c3         1 W4N      -0.069100
      8 CAR         -0.9760    -0.6050    -0.0080 c3         1 W4N       0.196300
      9 OAC         -1.3580    -1.3180     1.1560 oh         1 W4N      -0.615800
     10 CAP          0.5310    -0.4670    -0.0610 c2         1 W4N      -0.247400
     11 CAG          1.1530     0.6880    -0.2880 c2         1 W4N      -0.053200
     12 CAU          2.6450     0.8540    -0.3830 c6         1 W4N       0.028000
     13 CAO          3.0800     2.1150     0.4160 c          1 W4N       0.910600
     14 OAB          3.7240     2.9570    -0.2510 o          1 W4N      -0.810800
     15 OAA          2.7610     2.1770     1.6110 o          1 W4N      -0.810800
     16 OAF          2.9880     1.0520    -1.7380 oh         1 W4N      -0.636800
     17 CAN          3.3450    -0.3790     0.1860 c6         1 W4N      -0.104400
     18 CAS          2.7150    -1.6590    -0.3360 c6         1 W4N       0.143100
     19 OAD          3.4130    -2.8080     0.0960 oh         1 W4N      -0.607800
     20 CAT          1.2950    -1.7580     0.1870 c6         1 W4N       0.211300
     21 OAE          0.6720    -2.8650    -0.4300 oh         1 W4N      -0.601800
     22 HAK         -3.4530     0.8590     1.9860 ha         1 W4N       0.129500
     23 HAI         -5.8740     0.4250     2.0190 ha         1 W4N       0.120000
     24 HAH         -7.0570    -0.1950    -0.0650 ha         1 W4N       0.118000
     25 HAJ         -5.7860    -0.3830    -2.1840 ha         1 W4N       0.120000
     26 HAL         -3.3620     0.0520    -2.2130 ha         1 W4N       0.129500
     27 HAM1        -1.4670     1.1890    -1.0770 hc         1 W4N       0.062200
     28 HAM2        -1.4610     1.3910     0.6670 hc         1 W4N       0.062200
     29 HAR         -1.2850    -1.2460    -0.8410 h1         1 W4N       0.072700
     30 HAC         -1.0650    -0.8190     1.9260 ho         1 W4N       0.404000
     31 HAG          0.5730     1.5890    -0.4620 ha         1 W4N       0.119000
     32 HAT          1.3580    -1.9170     1.2740 h1         1 W4N       0.038700
     33 HAF          3.4670     1.9040    -1.7000 ho         1 W4N       0.439000
     34 HAN1         4.4090    -0.3430    -0.0730 hc         1 W4N       0.052700
     35 HAN2         3.2800    -0.3680     1.2770 hc         1 W4N       0.052700
     36 HAS          2.6790    -1.6190    -1.4350 h1         1 W4N       0.054700
     37 HAD          4.3240    -2.7290    -0.2050 ho         1 W4N       0.393000
     38 HAE         -0.0800    -3.1230     0.1130 ho         1 W4N       0.403000
@<TRIPOS>BOND
     1     1     2 ar  
     2     1     6 ar  
     3     1    22 1   
     4     2     3 ar  
     5     2    23 1   
     6     3     4 ar  
     7     3    24 1   
     8     4     5 ar  
     9     4    25 1   
    10     5     6 ar  
    11     5    26 1   
    12     6     7 1   
    13     7     8 1   
    14     7    27 1   
    15     7    28 1   
    16     8     9 1   
    17     8    10 1   
    18     8    29 1   
    19     9    30 1   
    20    10    11 2   
    21    10    20 1   
    22    11    12 1   
    23    11    31 1   
    24    12    13 1   
    25    12    16 1   
    26    12    17 1   
    27    13    14 1   
    28    13    15 1   
    29    16    33 1   
    30    17    18 1   
    31    17    34 1   
    32    17    35 1   
    33    18    19 1   
    34    18    20 1   
    35    18    36 1   
    36    19    37 1   
    37    20    21 1   
    38    20    32 1   
    39    21    38 1   
@<TRIPOS>SUBSTRUCTURE
     1 W4N         1 TEMP              0 ****  ****    0 ROOT
