@<TRIPOS>MOLECULE
W4N
   38    39     1     0     0
SMALL
No Charge or Current Charge


@<TRIPOS>ATOM
      1 CAK         -4.0520    -0.8540     1.1890 ca         1 W4N      -0.102500
      2 CAI         -5.4460    -0.7440     1.0390 ca         1 W4N      -0.115000
      3 CAH         -5.9930     0.3380     0.3300 ca         1 W4N      -0.124000
      4 CAJ         -5.1470     1.3100    -0.2290 ca         1 W4N      -0.115000
      5 CAL         -3.7540     1.2000    -0.0800 ca         1 W4N      -0.102500
      6 CAQ         -3.1980     0.1160     0.6290 ca         1 W4N      -0.054300
      7 CAM         -1.6850    -0.0030     0.7840 c3         1 W4N      -0.069100
      8 CAR         -0.9850    -0.4680    -0.5140 c3         1 W4N       0.219500
      9 OAC         -1.4210    -1.7900    -0.8490 oh         1 W4N      -0.678000
     10 CAP          0.5410    -0.4310    -0.4230 c2         1 W4N      -0.247400
     11 CAG          1.2670     0.3800    -1.2250 c2         1 W4N      -0.103200
     12 CAU          2.7870     0.5670    -1.1570 c6         1 W4N       0.051200
     13 CAO          3.2110     2.0900    -1.3470 c          1 W4N       0.700000
     14 OAB          4.0280     2.2980    -2.2390 o          1 W4N      -0.705500
     15 OAA          2.4160     2.9540    -1.0020 o          1 W4N      -0.705500
     16 OAF          3.3650    -0.2200    -2.2260 oh         1 W4N      -0.699000
     17 CAN          3.3470     0.0430     0.1940 c6         1 W4N      -0.104400
     18 CAS          2.7660    -1.3460     0.5420 c6         1 W4N       0.166300
     19 OAD          3.3880    -1.8450     1.7430 oh         1 W4N      -0.670000
     20 CAT          1.2060    -1.2670     0.6830 c6         1 W4N       0.234500
     21 OAE          0.6330    -2.5760     0.6740 oh         1 W4N      -0.664000
     22 HAK         -3.6370    -1.6960     1.7390 ha         1 W4N       0.111500
     23 HAI         -6.1000    -1.4970     1.4730 ha         1 W4N       0.102000
     24 HAH         -7.0720     0.4230     0.2150 ha         1 W4N       0.100000
     25 HAJ         -5.5700     2.1490    -0.7770 ha         1 W4N       0.102000
     26 HAL         -3.1060     1.9580    -0.5150 ha         1 W4N       0.111500
     27 HAM1        -1.2710     0.9710     1.0730 hc         1 W4N       0.062200
     28 HAM2        -1.4400    -0.6890     1.6030 hc         1 W4N       0.062200
     29 HAR         -1.2950     0.2240    -1.3110 h1         1 W4N       0.072700
     30 HAC         -2.3940    -1.7330    -0.9790 ho         1 W4N       0.443000
     31 HAG          0.7690     0.9880    -1.9810 ha         1 W4N       0.169000
     32 HAT          0.9850    -0.7770     1.6430 h1         1 W4N       0.038700
     33 HAF          3.9110     0.4420    -2.7210 ho         1 W4N       0.478000
     34 HAN1         4.4440     0.0020     0.1540 hc         1 W4N       0.052700
     35 HAN2         3.0930     0.7510     0.9950 hc         1 W4N       0.052700
     36 HAS          2.9920    -2.0250    -0.2940 h1         1 W4N       0.054700
     37 HAD          4.3260    -2.0270     1.5170 ho         1 W4N       0.432000
     38 HAE         -0.1650    -2.4560     0.0940 ho         1 W4N       0.442000
@<TRIPOS>BOND
     1     1     2 ar  
     2     1     6 ar  
     3     1    22 1   
     4     2     3 ar  
     5     2    23 1   
     6     3     4 ar  
     7     3    24 1   
     8     4     5 ar  
     9     4    25 1   
    10     5     6 ar  
    11     5    26 1   
    12     6     7 1   
    13     7     8 1   
    14     7    27 1   
    15     7    28 1   
    16     8     9 1   
    17     8    10 1   
    18     8    29 1   
    19     9    30 1   
    20    10    11 2   
    21    10    20 1   
    22    11    12 1   
    23    11    31 1   
    24    12    13 1   
    25    12    16 1   
    26    12    17 1   
    27    13    14 1   
    28    13    15 1   
    29    16    33 1   
    30    17    18 1   
    31    17    34 1   
    32    17    35 1   
    33    18    19 1   
    34    18    20 1   
    35    18    36 1   
    36    19    37 1   
    37    20    21 1   
    38    20    32 1   
    39    21    38 1   
@<TRIPOS>SUBSTRUCTURE
     1 W4N         1 TEMP              0 ****  ****    0 ROOT
