@<TRIPOS>MOLECULE
W4O
  146   147     1     0     0
SMALL
No Charge or Current Charge


@<TRIPOS>ATOM
      1 C1A        -14.3720   -21.6120    13.5230 c          1 W4O       0.596100
      2 C2A        -14.2070   -20.4510    14.5130 c3         1 W4O      -0.137400
      3 C3A        -13.0150   -20.5960    15.4970 c3         1 W4O      -0.066400
      4 C4A        -13.1560   -21.6940    16.5850 c3         1 W4O      -0.070400
      5 C5A        -13.0190   -23.1550    16.0990 c3         1 W4O      -0.042200
      6 C6A        -11.7130   -23.4110    15.3710 c2         1 W4O      -0.211200
      7 C7A        -10.6030   -23.9920    15.8570 c2         1 W4O      -0.226200
      8 C8A        -10.3690   -24.5160    17.2580 c3         1 W4O      -0.011000
      9 C9A         -8.9440   -24.2250    17.6850 c2         1 W4O      -0.213200
     10 CAA         -7.9140   -25.0880    17.7470 c2         1 W4O      -0.216200
     11 CBA         -7.9240   -26.5670    17.4180 c3         1 W4O      -0.011000
     12 CCA         -7.6030   -26.7890    15.9530 c2         1 W4O      -0.218200
     13 CDA         -6.4440   -27.2180    15.4200 c2         1 W4O      -0.211200
     14 CEA         -5.1590   -27.5450    16.1610 c3         1 W4O      -0.018000
     15 CFA         -3.9300   -27.0950    15.3920 c2         1 W4O      -0.214200
     16 CGA         -2.6520   -27.2320    15.7860 c2         1 W4O      -0.216200
     17 CHA         -2.1610   -27.8510    17.0810 c3         1 W4O      -0.042200
     18 CIA         -1.4580   -29.2010    16.8520 c3         1 W4O      -0.086100
     19 O1A        -13.5450   -21.8730    12.6610 o          1 W4O      -0.493000
     20 C2B        -12.3780   -25.5810    12.3390 c3         1 W4O      -0.132400
     21 C3B        -11.2860   -24.6660    11.7340 c3         1 W4O      -0.074400
     22 C4B         -9.8560   -25.1590    12.0480 c3         1 W4O      -0.074400
     23 C5B         -8.7550   -24.2170    11.5200 c3         1 W4O      -0.043200
     24 C6B         -7.3640   -24.7380    11.8310 c2         1 W4O      -0.220200
     25 C7B         -6.5900   -24.4350    12.8900 c2         1 W4O      -0.210200
     26 C8B         -6.9180   -23.5170    14.0530 c3         1 W4O      -0.019000
     27 C9B         -5.8080   -22.5030    14.2550 c2         1 W4O      -0.209200
     28 CAB         -4.8400   -22.5120    15.1910 c2         1 W4O      -0.215200
     29 CBB         -4.5810   -23.5660    16.2530 c3         1 W4O      -0.018000
     30 CCB         -4.7280   -22.9920    17.6500 c2         1 W4O      -0.211200
     31 CDB         -4.3060   -23.5570    18.7950 c2         1 W4O      -0.217200
     32 CEB         -3.5930   -24.8870    18.9460 c3         1 W4O      -0.010000
     33 CFB         -4.3180   -25.7740    19.9410 c2         1 W4O      -0.218200
     34 CGB         -3.8150   -26.3790    21.0330 c2         1 W4O      -0.214200
     35 CHB         -2.3960   -26.3020    21.5670 c3         1 W4O      -0.044200
     36 CIB         -1.5440   -27.5070    21.1290 c3         1 W4O      -0.086100
     37 O1B        -14.3080   -25.1660    10.9280 o          1 W4O      -0.489000
     38 O1G        -15.6800   -22.0210    13.4790 os         1 W4O      -0.441100
     39 C1G        -16.0900   -23.0260    12.5190 c3         1 W4O       0.142600
     40 C2G        -15.8910   -24.4620    13.0930 c3         1 W4O       0.149300
     41 O2G        -14.4850   -24.7940    13.1860 os         1 W4O      -0.447100
     42 C3G        -16.5200   -24.6590    14.4930 c3         1 W4O       0.168600
     43 O3G        -17.9460   -24.5030    14.3750 os         1 W4O      -0.429000
     44 C1D        -18.6970   -24.6050    15.5980 c6         1 W4O       0.410300
     45 C2D        -20.2070   -24.2500    15.3670 c6         1 W4O       0.153300
     46 O2D        -20.4190   -22.9050    14.8780 oh         1 W4O      -0.705000
     47 C3D        -21.0000   -24.4480    16.6960 c6         1 W4O       0.086300
     48 O3D        -22.4080   -24.2090    16.4750 oh         1 W4O      -0.667000
     49 C4D        -20.7750   -25.8830    17.2620 c6         1 W4O       0.114300
     50 O4D        -21.4380   -26.8240    16.3930 oh         1 W4O      -0.706000
     51 C5D        -19.2330   -26.1470    17.3780 c6         1 W4O       0.180300
     52 C6D        -18.8930   -27.5800    17.8760 c3         1 W4O       0.174600
     53 O6D        -18.5840   -25.9550    16.0970 os         1 W4O      -0.477000
     54 C1E        -19.1310   -29.0350    19.8290 c6         1 W4O       0.363300
     55 C2E        -19.8410   -29.1300    21.2240 c6         1 W4O       0.114300
     56 O2E        -21.2450   -28.7820    21.1370 oh         1 W4O      -0.720000
     57 C3E        -19.1300   -28.2060    22.2640 c6         1 W4O       0.141300
     58 O3E        -19.7180   -28.3940    23.5660 oh         1 W4O      -0.672000
     59 C4E        -17.5980   -28.4810    22.3130 c6         1 W4O       0.147300
     60 O4E        -17.3670   -29.7790    22.9010 oh         1 W4O      -0.715000
     61 C5E        -17.0250   -28.3600    20.8630 c6         1 W4O       0.170300
     62 O6E        -17.7110   -29.2680    19.9570 os         1 W4O      -0.449000
     63 C6E        -15.4890   -28.6480    20.7970 c3         1 W4O       0.172600
     64 O5E        -14.9360   -28.4870    19.4740 oh         1 W4O      -0.717000
     65 HA21       -14.0420   -19.5430    13.9220 hc         1 W4O       0.069700
     66 HA22       -15.1300   -20.3260    15.0910 hc         1 W4O       0.069700
     67 HA31       -12.0850   -20.7370    14.9330 hc         1 W4O       0.052700
     68 HA32       -12.9010   -19.6360    16.0150 hc         1 W4O       0.052700
     69 HA42       -12.3840   -21.5200    17.3450 hc         1 W4O       0.039200
     70 HA41       -14.1200   -21.5750    17.0960 hc         1 W4O       0.039200
     71 HA52       -13.8620   -23.4090    15.4500 hc         1 W4O       0.044200
     72 HA51       -13.1150   -23.8190    16.9660 hc         1 W4O       0.044200
     73 HA61       -11.7240   -23.0780    14.3330 ha         1 W4O       0.181000
     74 HA71        -9.7380   -24.1120    15.2040 ha         1 W4O       0.168000
     75 HA82       -11.0640   -24.0630    17.9750 hc         1 W4O       0.049200
     76 HA81       -10.5770   -25.5920    17.2760 hc         1 W4O       0.049200
     77 HA91        -8.7800   -23.1800    17.9530 ha         1 W4O       0.169000
     78 HAT1        -6.9360   -24.7260    18.0650 ha         1 W4O       0.168000
     79 HAE1        -8.8980   -27.0150    17.6490 hc         1 W4O       0.049700
     80 HAE2        -7.2150   -27.0930    18.0680 hc         1 W4O       0.049700
     81 HAW1        -8.4460   -26.5790    15.2920 ha         1 W4O       0.171000
     82 HAH1        -6.3780   -27.3500    14.3390 ha         1 W4O       0.167000
     83 HAF2        -5.1540   -27.0820    17.1540 hc         1 W4O       0.056700
     84 HAF1        -5.1040   -28.6280    16.3280 hc         1 W4O       0.056700
     85 HAN1        -4.1420   -26.6130    14.4360 ha         1 W4O       0.164000
     86 HAS1        -1.8490   -26.8620    15.1440 ha         1 W4O       0.164000
     87 HAV2        -1.4610   -27.1650    17.5730 hc         1 W4O       0.042700
     88 HAV1        -2.9850   -28.0030    17.7870 hc         1 W4O       0.042700
     89 HAG3        -1.1110   -29.6170    17.8050 hc         1 W4O       0.032367
     90 HAG2        -2.1470   -29.9200    16.3920 hc         1 W4O       0.032367
     91 HAG1        -0.5910   -29.0790    16.1920 hc         1 W4O       0.032367
     92 HB22       -12.2690   -26.5840    11.9110 hc         1 W4O       0.070200
     93 HB21       -12.2330   -25.6240    13.4250 hc         1 W4O       0.070200
     94 HB32       -11.4120   -23.6460    12.1130 hc         1 W4O       0.059700
     95 HB31       -11.4180   -24.6160    10.6460 hc         1 W4O       0.059700
     96 HB42        -9.7140   -26.1560    11.6120 hc         1 W4O       0.039200
     97 HB41        -9.7390   -25.2700    13.1330 hc         1 W4O       0.039200
     98 HB51        -8.9050   -23.2170    11.9440 hc         1 W4O       0.047200
     99 HB52        -8.8690   -24.1010    10.4350 hc         1 W4O       0.047200
    100 HB61        -6.9840   -25.4300    11.0770 ha         1 W4O       0.167000
    101 HB71        -5.6030   -24.8920    12.9740 ha         1 W4O       0.165000
    102 HB81        -7.0720   -24.1170    14.9560 hc         1 W4O       0.055700
    103 HB82        -7.8660   -22.9910    13.9000 hc         1 W4O       0.055700
    104 HB91        -5.8520   -21.6750    13.5440 ha         1 W4O       0.170000
    105 HBT1        -4.1150   -21.6960    15.2110 ha         1 W4O       0.169000
    106 HBE1        -5.2500   -24.4250    16.1390 hc         1 W4O       0.053200
    107 HBE2        -3.5680   -23.9640    16.1180 hc         1 W4O       0.053200
    108 HBW1        -5.2390   -22.0280    17.6840 ha         1 W4O       0.169000
    109 HBH1        -4.4730   -23.0420    19.7430 ha         1 W4O       0.167000
    110 HBF1        -3.5360   -25.4070    17.9840 hc         1 W4O       0.049700
    111 HBF2        -2.5540   -24.7110    19.2440 hc         1 W4O       0.049700
    112 HBN1        -5.3690   -25.9270    19.6890 ha         1 W4O       0.168000
    113 HBS1        -4.4720   -27.0000    21.6450 ha         1 W4O       0.167000
    114 HBV1        -2.4180   -26.2630    22.6640 hc         1 W4O       0.043200
    115 HBV2        -1.8970   -25.3810    21.2480 hc         1 W4O       0.043200
    116 HBG2        -0.5320   -27.4330    21.5450 hc         1 W4O       0.032700
    117 HBG3        -1.9920   -28.4460    21.4780 hc         1 W4O       0.032700
    118 HBG1        -1.4640   -27.5470    20.0370 hc         1 W4O       0.032700
    119 HG11       -15.5710   -22.9130    11.5580 h1         1 W4O       0.083700
    120 HG12       -17.1610   -22.9060    12.3090 h1         1 W4O       0.083700
    121 HG2        -16.3950   -25.1700    12.4210 h1         1 W4O       0.080700
    122 HG31       -16.2700   -25.6630    14.8600 h1         1 W4O       0.048700
    123 HG32       -16.1070   -23.9250    15.1970 h1         1 W4O       0.048700
    124 HD1        -18.2740   -23.9060    16.3360 h2         1 W4O       0.030700
    125 HD2        -20.5910   -24.9700    14.6280 h1         1 W4O       0.078700
    126 HO2D       -21.3780   -22.7320    15.0380 ho         1 W4O       0.518000
    127 HD3        -20.6120   -23.7280    17.4330 h1         1 W4O       0.048700
    128 HO3D       -22.8140   -24.0050    17.3490 ho         1 W4O       0.452000
    129 HD4        -21.2110   -25.9320    18.2710 h1         1 W4O       0.056700
    130 HO4D       -22.2360   -26.3400    16.0700 ho         1 W4O       0.512000
    131 HD5        -18.7980   -25.4360    18.0960 h1         1 W4O       0.045700
    132 HD61       -19.3590   -28.3150    17.2060 h1         1 W4O       0.062700
    133 HD62       -17.8050   -27.7140    17.8260 h1         1 W4O       0.062700
    134 HE1        -19.5590   -29.8110    19.1760 h2         1 W4O       0.077700
    135 HE2        -19.7420   -30.1710    21.5650 h1         1 W4O       0.066700
    136 HO2E       -21.3070   -28.0780    20.4470 ho         1 W4O       0.512000
    137 HE3        -19.2700   -27.1620    21.9420 h1         1 W4O       0.065700
    138 HO3E       -20.6880   -28.4560    23.4020 ho         1 W4O       0.467000
    139 HE4        -17.1290   -27.7030    22.9350 h1         1 W4O       0.050700
    140 HO4E       -18.0370   -29.8400    23.6250 ho         1 W4O       0.521000
    141 HE5        -17.1770   -27.3290    20.5120 h1         1 W4O       0.062700
    142 HE61       -15.3140   -29.6720    21.1540 h1         1 W4O       0.036700
    143 HE62       -14.9860   -27.9680    21.4980 h1         1 W4O       0.036700
    144 HO5E       -13.9990   -28.7890    19.5160 ho         1 W4O       0.505000
    145 O5D        -19.3640   -27.7440    19.2310 os         1 W4O      -0.484000
    146 C1B        -13.7920   -25.0770    12.0350 c          1 W4O       0.607100
@<TRIPOS>BOND
     1     1     2 1   
     2     1    19 2   
     3     1    38 1   
     4     2     3 1   
     5     2    65 1   
     6     2    66 1   
     7     3     4 1   
     8     3    67 1   
     9     3    68 1   
    10     4     5 1   
    11     4    69 1   
    12     4    70 1   
    13     5     6 1   
    14     5    71 1   
    15     5    72 1   
    16     6     7 2   
    17     6    73 1   
    18     7     8 1   
    19     7    74 1   
    20     8     9 1   
    21     8    75 1   
    22     8    76 1   
    23     9    10 2   
    24     9    77 1   
    25    10    11 1   
    26    10    78 1   
    27    11    12 1   
    28    11    79 1   
    29    11    80 1   
    30    12    13 2   
    31    12    81 1   
    32    13    14 1   
    33    13    82 1   
    34    14    15 1   
    35    14    83 1   
    36    14    84 1   
    37    15    16 2   
    38    15    85 1   
    39    16    17 1   
    40    16    86 1   
    41    17    18 1   
    42    17    87 1   
    43    17    88 1   
    44    18    89 1   
    45    18    90 1   
    46    18    91 1   
    47    20    21 1   
    48    20    92 1   
    49    20    93 1   
    50    20   146 1   
    51    21    22 1   
    52    21    94 1   
    53    21    95 1   
    54    22    23 1   
    55    22    96 1   
    56    22    97 1   
    57    23    24 1   
    58    23    98 1   
    59    23    99 1   
    60    24    25 2   
    61    24   100 1   
    62    25    26 1   
    63    25   101 1   
    64    26    27 1   
    65    26   102 1   
    66    26   103 1   
    67    27    28 2   
    68    27   104 1   
    69    28    29 1   
    70    28   105 1   
    71    29    30 1   
    72    29   106 1   
    73    29   107 1   
    74    30    31 2   
    75    30   108 1   
    76    31    32 1   
    77    31   109 1   
    78    32    33 1   
    79    32   110 1   
    80    32   111 1   
    81    33    34 2   
    82    33   112 1   
    83    34    35 1   
    84    34   113 1   
    85    35    36 1   
    86    35   114 1   
    87    35   115 1   
    88    36   116 1   
    89    36   117 1   
    90    36   118 1   
    91    37   146 2   
    92    38    39 1   
    93    39    40 1   
    94    39   119 1   
    95    39   120 1   
    96    40    41 1   
    97    40    42 1   
    98    40   121 1   
    99    41   146 1   
   100    42    43 1   
   101    42   122 1   
   102    42   123 1   
   103    43    44 1   
   104    44    45 1   
   105    44    53 1   
   106    44   124 1   
   107    45    46 1   
   108    45    47 1   
   109    45   125 1   
   110    46   126 1   
   111    47    48 1   
   112    47    49 1   
   113    47   127 1   
   114    48   128 1   
   115    49    50 1   
   116    49    51 1   
   117    49   129 1   
   118    50   130 1   
   119    51    52 1   
   120    51    53 1   
   121    51   131 1   
   122    52   132 1   
   123    52   133 1   
   124    52   145 1   
   125    54    55 1   
   126    54    62 1   
   127    54   134 1   
   128    54   145 1   
   129    55    56 1   
   130    55    57 1   
   131    55   135 1   
   132    56   136 1   
   133    57    58 1   
   134    57    59 1   
   135    57   137 1   
   136    58   138 1   
   137    59    60 1   
   138    59    61 1   
   139    59   139 1   
   140    60   140 1   
   141    61    62 1   
   142    61    63 1   
   143    61   141 1   
   144    63    64 1   
   145    63   142 1   
   146    63   143 1   
   147    64   144 1   
@<TRIPOS>SUBSTRUCTURE
     1 W4O         1 TEMP              0 ****  ****    0 ROOT
