@<TRIPOS>MOLECULE
W4O
  146   147     1     0     0
SMALL
abcg2


@<TRIPOS>ATOM
      1 C1A        -14.6390   -21.8520    13.7130 c          1 W4O       0.596100
      2 C2A        -14.6610   -20.7670    14.7570 c3         1 W4O      -0.137400
      3 C3A        -13.3310   -20.5190    15.4670 c3         1 W4O      -0.066400
      4 C4A        -13.0950   -21.4280    16.6710 c3         1 W4O      -0.070400
      5 C5A        -12.9570   -22.9240    16.3710 c3         1 W4O      -0.042200
      6 C6A        -11.7520   -23.2500    15.5470 c2         1 W4O      -0.211200
      7 C7A        -10.7100   -24.0020    15.8960 c2         1 W4O      -0.226200
      8 C8A        -10.4750   -24.7190    17.1950 c3         1 W4O      -0.011000
      9 C9A         -9.1750   -24.2800    17.8030 c2         1 W4O      -0.213200
     10 CAA         -8.0450   -24.9830    17.8640 c2         1 W4O      -0.216200
     11 CBA         -7.8140   -26.3760    17.3490 c3         1 W4O      -0.011000
     12 CCA         -7.0660   -26.3230    16.0460 c2         1 W4O      -0.218200
     13 CDA         -5.7520   -26.4580    15.8760 c2         1 W4O      -0.211200
     14 CEA         -4.7260   -26.7110    16.9410 c3         1 W4O      -0.018000
     15 CFA         -3.7120   -27.7250    16.5010 c2         1 W4O      -0.214200
     16 CGA         -3.3540   -28.8430    17.1310 c2         1 W4O      -0.216200
     17 CHA         -3.8820   -29.3820    18.4230 c3         1 W4O      -0.042200
     18 CIA         -4.4820   -30.7760    18.2530 c3         1 W4O      -0.086100
     19 O1A        -13.7260   -22.0550    12.9530 o          1 W4O      -0.493000
     20 C2B        -12.0470   -25.5550    12.4950 c3         1 W4O      -0.132400
     21 C3B        -11.1110   -24.4900    11.9260 c3         1 W4O      -0.074400
     22 C4B         -9.6500   -24.8200    12.1980 c3         1 W4O      -0.074400
     23 C5B         -8.7140   -23.6650    11.8400 c3         1 W4O      -0.043200
     24 C6B         -7.2790   -24.0130    12.0870 c2         1 W4O      -0.220200
     25 C7B         -6.5600   -23.7180    13.1700 c2         1 W4O      -0.210200
     26 C8B         -7.0040   -22.9520    14.3840 c3         1 W4O      -0.019000
     27 C9B         -6.1110   -21.7680    14.6450 c2         1 W4O      -0.209200
     28 CAB         -4.9430   -21.8000    15.2850 c2         1 W4O      -0.215200
     29 CBB         -4.2930   -23.0150    15.8790 c3         1 W4O      -0.018000
     30 CCB         -4.2140   -22.9490    17.3760 c2         1 W4O      -0.211200
     31 CDB         -3.1280   -23.1150    18.1300 c2         1 W4O      -0.217200
     32 CEB         -1.7310   -23.4100    17.6560 c3         1 W4O      -0.010000
     33 CFB         -1.4900   -24.8950    17.6440 c2         1 W4O      -0.218200
     34 CGB         -0.8860   -25.6260    18.5790 c2         1 W4O      -0.214200
     35 CHB         -0.2570   -25.1510    19.8500 c3         1 W4O      -0.044200
     36 CIB          1.2220   -25.5250    19.9280 c3         1 W4O      -0.086100
     37 O1B        -13.9240   -25.2450    11.0350 o          1 W4O      -0.489000
     38 O1G        -15.7910   -22.5210    13.6800 os         1 W4O      -0.441100
     39 C1G        -16.0120   -23.4890    12.6570 c3         1 W4O       0.142600
     40 C2G        -15.6440   -24.8990    13.0870 c3         1 W4O       0.149300
     41 O2G        -14.2370   -25.0920    13.2430 os         1 W4O      -0.447100
     42 C3G        -16.2260   -25.2980    14.4370 c3         1 W4O       0.168600
     43 O3G        -17.6210   -25.1130    14.3660 os         1 W4O      -0.429000
     44 C1D        -18.2600   -24.9850    15.5780 c6         1 W4O       0.410300
     45 C2D        -19.6690   -24.4540    15.3430 c6         1 W4O       0.153300
     46 O2D        -19.5550   -23.1750    14.7750 oh         1 W4O      -0.705000
     47 C3D        -20.3970   -24.4200    16.6830 c6         1 W4O       0.086300
     48 O3D        -21.7220   -24.0020    16.4330 oh         1 W4O      -0.667000
     49 C4D        -20.3600   -25.7860    17.3700 c6         1 W4O       0.114300
     50 O4D        -21.1020   -26.7450    16.6590 oh         1 W4O      -0.706000
     51 C5D        -18.9100   -26.2440    17.4590 c6         1 W4O       0.180300
     52 C6D        -18.7490   -27.6520    18.0160 c3         1 W4O       0.174600
     53 O6D        -18.3100   -26.2510    16.1810 os         1 W4O      -0.477000
     54 C1E        -20.0780   -28.8430    19.5830 c6         1 W4O       0.363300
     55 C2E        -21.0510   -28.5340    20.7270 c6         1 W4O       0.114300
     56 O2E        -21.8440   -27.4010    20.4720 oh         1 W4O      -0.720000
     57 C3E        -20.2860   -28.2910    22.0210 c6         1 W4O       0.141300
     58 O3E        -21.1470   -28.1320    23.1230 oh         1 W4O      -0.672000
     59 C4E        -19.3770   -29.4830    22.3130 c6         1 W4O       0.147300
     60 O4E        -20.1130   -30.6480    22.5900 oh         1 W4O      -0.715000
     61 C5E        -18.4840   -29.7340    21.1050 c6         1 W4O       0.170300
     62 O6E        -19.2470   -29.9170    19.9220 os         1 W4O      -0.449000
     63 C6E        -17.6010   -30.9510    21.2850 c3         1 W4O       0.172600
     64 O5E        -16.6290   -30.9560    20.2670 oh         1 W4O      -0.717000
     65 HA21       -14.9550   -19.8600    14.2170 hc         1 W4O       0.069700
     66 HA22       -15.4550   -20.9540    15.4810 hc         1 W4O       0.069700
     67 HA31       -12.5060   -20.5830    14.7560 hc         1 W4O       0.052700
     68 HA32       -13.3330   -19.4880    15.8260 hc         1 W4O       0.052700
     69 HA42       -12.1940   -21.0930    17.1920 hc         1 W4O       0.039200
     70 HA41       -13.9220   -21.2910    17.3730 hc         1 W4O       0.039200
     71 HA52       -13.8550   -23.2840    15.8590 hc         1 W4O       0.044200
     72 HA51       -12.9320   -23.4640    17.3190 hc         1 W4O       0.044200
     73 HA61       -11.7310   -22.8150    14.5530 ha         1 W4O       0.181000
     74 HA71        -9.9120   -24.1260    15.1690 ha         1 W4O       0.168000
     75 HA82       -11.2900   -24.5350    17.8970 hc         1 W4O       0.049200
     76 HA81       -10.4660   -25.7960    17.0060 hc         1 W4O       0.049200
     77 HA91        -9.1650   -23.2660    18.1930 ha         1 W4O       0.169000
     78 HAT1        -7.1700   -24.5040    18.2960 ha         1 W4O       0.168000
     79 HAE1        -8.7600   -26.8990    17.2000 hc         1 W4O       0.049700
     80 HAE2        -7.2550   -26.9440    18.0950 hc         1 W4O       0.049700
     81 HAW1        -7.6710   -26.1010    15.1720 ha         1 W4O       0.171000
     82 HAH1        -5.3610   -26.3530    14.8670 ha         1 W4O       0.167000
     83 HAF2        -4.2040   -25.7680    17.1420 hc         1 W4O       0.056700
     84 HAF1        -5.1940   -26.9950    17.8830 hc         1 W4O       0.056700
     85 HAN1        -3.2240   -27.5000    15.5560 ha         1 W4O       0.164000
     86 HAS1        -2.5940   -29.4600    16.6570 ha         1 W4O       0.164000
     87 HAV2        -3.0610   -29.4380    19.1450 hc         1 W4O       0.042700
     88 HAV1        -4.6250   -28.7140    18.8600 hc         1 W4O       0.042700
     89 HAG3        -4.8140   -31.1800    19.2090 hc         1 W4O       0.032367
     90 HAG2        -5.3410   -30.7550    17.5820 hc         1 W4O       0.032367
     91 HAG1        -3.7520   -31.4720    17.8360 hc         1 W4O       0.032367
     92 HB22       -11.7930   -26.5290    12.0650 hc         1 W4O       0.070200
     93 HB21       -11.9130   -25.6280    13.5740 hc         1 W4O       0.070200
     94 HB32       -11.3550   -23.5210    12.3710 hc         1 W4O       0.059700
     95 HB31       -11.2690   -24.3880    10.8490 hc         1 W4O       0.059700
     96 HB42        -9.3650   -25.7190    11.6420 hc         1 W4O       0.039200
     97 HB41        -9.5160   -25.0630    13.2570 hc         1 W4O       0.039200
     98 HB51        -9.0100   -22.7820    12.4110 hc         1 W4O       0.047200
     99 HB52        -8.8490   -23.4080    10.7850 hc         1 W4O       0.047200
    100 HB61        -6.7970   -24.6020    11.3130 ha         1 W4O       0.167000
    101 HB71        -5.5320   -24.0680    13.2070 ha         1 W4O       0.165000
    102 HB81        -6.9950   -23.6300    15.2420 hc         1 W4O       0.055700
    103 HB82        -8.0360   -22.6140    14.2790 hc         1 W4O       0.055700
    104 HB91        -6.4460   -20.8190    14.2400 ha         1 W4O       0.170000
    105 HBT1        -4.3900   -20.8720    15.3950 ha         1 W4O       0.169000
    106 HBE1        -4.8500   -23.9150    15.6030 hc         1 W4O       0.053200
    107 HBE2        -3.2960   -23.1370    15.4480 hc         1 W4O       0.053200
    108 HBW1        -5.1610   -22.7770    17.8800 ha         1 W4O       0.169000
    109 HBH1        -3.2520   -23.0870    19.2080 ha         1 W4O       0.167000
    110 HBF1        -1.5700   -23.0160    16.6500 hc         1 W4O       0.049700
    111 HBF2        -1.0170   -22.9030    18.3070 hc         1 W4O       0.049700
    112 HBN1        -1.8990   -25.4170    16.7830 ha         1 W4O       0.168000
    113 HBS1        -0.8270   -26.6990    18.4110 ha         1 W4O       0.167000
    114 HBV1        -0.7820   -25.6080    20.6950 hc         1 W4O       0.043200
    115 HBV2        -0.3740   -24.0720    19.9700 hc         1 W4O       0.043200
    116 HBG2         1.6540   -25.2280    20.8840 hc         1 W4O       0.032700
    117 HBG3         1.3610   -26.6020    19.8210 hc         1 W4O       0.032700
    118 HBG1         1.7920   -25.0380    19.1360 hc         1 W4O       0.032700
    119 HG11       -15.4970   -23.2160    11.7360 h1         1 W4O       0.083700
    120 HG12       -17.0820   -23.4650    12.4570 h1         1 W4O       0.083700
    121 HG2        -16.0280   -25.5700    12.3130 h1         1 W4O       0.080700
    122 HG31       -15.9710   -26.3430    14.6410 h1         1 W4O       0.048700
    123 HG32       -15.7890   -24.6890    15.2380 h1         1 W4O       0.048700
    124 HD1        -17.7130   -24.2830    16.2370 h2         1 W4O       0.030700
    125 HD2        -20.1900   -25.1500    14.6680 h1         1 W4O       0.078700
    126 HO2D       -20.4410   -22.8060    14.6920 ho         1 W4O       0.518000
    127 HD3        -19.8770   -23.7020    17.3330 h1         1 W4O       0.048700
    128 HO3D       -22.1030   -23.6710    17.2530 ho         1 W4O       0.452000
    129 HD4        -20.7430   -25.6660    18.3930 h1         1 W4O       0.056700
    130 HO4D       -21.9740   -26.3730    16.4880 ho         1 W4O       0.512000
    131 HD5        -18.3850   -25.5380    18.1210 h1         1 W4O       0.045700
    132 HD61       -19.2020   -28.3770    17.3310 h1         1 W4O       0.062700
    133 HD62       -17.6840   -27.8950    18.0930 h1         1 W4O       0.062700
    134 HE1        -20.6380   -29.1830    18.7010 h2         1 W4O       0.077700
    135 HE2        -21.6770   -29.4270    20.8570 h1         1 W4O       0.066700
    136 HO2E       -22.5230   -27.6310    19.8300 ho         1 W4O       0.512000
    137 HE3        -19.6480   -27.4050    21.8950 h1         1 W4O       0.065700
    138 HO3E       -21.8330   -27.4990    22.8860 ho         1 W4O       0.467000
    139 HE4        -18.7220   -29.2200    23.1580 h1         1 W4O       0.050700
    140 HO4E       -20.7410   -30.4440    23.2920 ho         1 W4O       0.521000
    141 HE5        -17.8290   -28.8570    21.0060 h1         1 W4O       0.062700
    142 HE61       -18.2130   -31.8600    21.2670 h1         1 W4O       0.036700
    143 HE62       -17.1430   -30.8900    22.2810 h1         1 W4O       0.036700
    144 HO5E       -16.1070   -31.7590    20.3540 ho         1 W4O       0.505000
    145 O5D        -19.3620   -27.6920    19.2840 os         1 W4O      -0.484000
    146 C1B        -13.4860   -25.2820    12.1570 c          1 W4O       0.607100
@<TRIPOS>BOND
     1     1     2 1   
     2     1    19 2   
     3     1    38 1   
     4     2     3 1   
     5     2    65 1   
     6     2    66 1   
     7     3     4 1   
     8     3    67 1   
     9     3    68 1   
    10     4     5 1   
    11     4    69 1   
    12     4    70 1   
    13     5     6 1   
    14     5    71 1   
    15     5    72 1   
    16     6     7 2   
    17     6    73 1   
    18     7     8 1   
    19     7    74 1   
    20     8     9 1   
    21     8    75 1   
    22     8    76 1   
    23     9    10 2   
    24     9    77 1   
    25    10    11 1   
    26    10    78 1   
    27    11    12 1   
    28    11    79 1   
    29    11    80 1   
    30    12    13 2   
    31    12    81 1   
    32    13    14 1   
    33    13    82 1   
    34    14    15 1   
    35    14    83 1   
    36    14    84 1   
    37    15    16 2   
    38    15    85 1   
    39    16    17 1   
    40    16    86 1   
    41    17    18 1   
    42    17    87 1   
    43    17    88 1   
    44    18    89 1   
    45    18    90 1   
    46    18    91 1   
    47    20    21 1   
    48    20    92 1   
    49    20    93 1   
    50    20   146 1   
    51    21    22 1   
    52    21    94 1   
    53    21    95 1   
    54    22    23 1   
    55    22    96 1   
    56    22    97 1   
    57    23    24 1   
    58    23    98 1   
    59    23    99 1   
    60    24    25 2   
    61    24   100 1   
    62    25    26 1   
    63    25   101 1   
    64    26    27 1   
    65    26   102 1   
    66    26   103 1   
    67    27    28 2   
    68    27   104 1   
    69    28    29 1   
    70    28   105 1   
    71    29    30 1   
    72    29   106 1   
    73    29   107 1   
    74    30    31 2   
    75    30   108 1   
    76    31    32 1   
    77    31   109 1   
    78    32    33 1   
    79    32   110 1   
    80    32   111 1   
    81    33    34 2   
    82    33   112 1   
    83    34    35 1   
    84    34   113 1   
    85    35    36 1   
    86    35   114 1   
    87    35   115 1   
    88    36   116 1   
    89    36   117 1   
    90    36   118 1   
    91    37   146 2   
    92    38    39 1   
    93    39    40 1   
    94    39   119 1   
    95    39   120 1   
    96    40    41 1   
    97    40    42 1   
    98    40   121 1   
    99    41   146 1   
   100    42    43 1   
   101    42   122 1   
   102    42   123 1   
   103    43    44 1   
   104    44    45 1   
   105    44    53 1   
   106    44   124 1   
   107    45    46 1   
   108    45    47 1   
   109    45   125 1   
   110    46   126 1   
   111    47    48 1   
   112    47    49 1   
   113    47   127 1   
   114    48   128 1   
   115    49    50 1   
   116    49    51 1   
   117    49   129 1   
   118    50   130 1   
   119    51    52 1   
   120    51    53 1   
   121    51   131 1   
   122    52   132 1   
   123    52   133 1   
   124    52   145 1   
   125    54    55 1   
   126    54    62 1   
   127    54   134 1   
   128    54   145 1   
   129    55    56 1   
   130    55    57 1   
   131    55   135 1   
   132    56   136 1   
   133    57    58 1   
   134    57    59 1   
   135    57   137 1   
   136    58   138 1   
   137    59    60 1   
   138    59    61 1   
   139    59   139 1   
   140    60   140 1   
   141    61    62 1   
   142    61    63 1   
   143    61   141 1   
   144    63    64 1   
   145    63   142 1   
   146    63   143 1   
   147    64   144 1   
@<TRIPOS>SUBSTRUCTURE
     1 W4O         1 TEMP              0 ****  ****    0 ROOT
