@<TRIPOS>MOLECULE
W4P
   55    58     1     0     0
SMALL
abcg2


@<TRIPOS>ATOM
      1 C10          4.3880    -5.7500    23.2410 ca         1 W4P       0.001000
      2 C13          6.1290    -5.4600    21.1140 ca         1 W4P      -0.048200
      3 C15          2.6730    -6.1120    25.2020 cg         1 W4P      -0.105000
      4 C17          2.0690    -5.9390    27.5730 ca         1 W4P      -0.088500
      5 C20         -0.9940    -7.0900    29.5060 c3         1 W4P       0.122900
      6 C22         -0.2200    -9.4090    30.1060 cc         1 W4P      -0.214000
      7 C26         -3.6400    -8.6390    29.1160 c3         1 W4P       0.134300
      8 C28         -0.3530    -7.2050    27.0690 ca         1 W4P      -0.093500
      9 S02          5.4620    -3.5650    18.2080 ss         1 W4P      -0.423000
     10 C03          7.2150    -4.1000    18.1040 c3         1 W4P       0.264700
     11 C04          7.4310    -5.3750    18.9320 c3         1 W4P       0.100600
     12 N05          7.2070    -5.1480    20.3430 na         1 W4P       0.049600
     13 N06          8.1350    -4.5010    21.0830 nc         1 W4P      -0.170400
     14 N07          7.7120    -4.3840    22.2990 nd         1 W4P      -0.207400
     15 C08          6.4660    -4.9630    22.3840 ca         1 W4P       0.007400
     16 C09          5.5990    -5.1030    23.4680 ca         1 W4P      -0.003000
     17 C11          4.0620    -6.2400    21.9400 ca         1 W4P      -0.055000
     18 C12          4.9140    -6.1070    20.8680 ca         1 W4P      -0.108000
     19 C14          3.4620    -5.9370    24.3020 ch         1 W4P      -0.096000
     20 C16          1.7580    -6.3360    26.2650 ca         1 W4P       0.040000
     21 C18          1.1790    -6.1810    28.6090 ca         1 W4P      -0.093500
     22 C19         -0.0370    -6.8160    28.3720 ca         1 W4P      -0.111300
     23 N21         -1.1970    -8.5230    29.7170 na         1 W4P      -0.161500
     24 C23         -0.8220   -10.6370    30.1410 cd         1 W4P       0.228900
     25 N24         -2.1460   -10.5220    29.7850 nd         1 W4P      -0.662000
     26 C25         -2.3450    -9.2390    29.5300 cc         1 W4P       0.392800
     27 O27         -4.1680    -7.8670    30.2060 oh         1 W4P      -0.663000
     28 C29          0.5270    -6.9720    26.0270 ca         1 W4P      -0.088500
     29 N30          7.6710    -4.3010    16.7580 n          1 W4P      -0.297300
     30 O31          7.0720    -5.3570    16.0780 oh         1 W4P      -0.443100
     31 C32          8.4640    -3.4880    16.0440 c          1 W4P       0.584900
     32 O33          8.6950    -3.6870    14.8520 o          1 W4P      -0.594100
     33 H1           3.0140    -5.4480    27.7700 ha         1 W4P       0.123500
     34 H2          -0.6170    -6.6530    30.4310 h1         1 W4P       0.071700
     35 H3          -1.9680    -6.6490    29.3070 h1         1 W4P       0.071700
     36 H4           0.7860    -9.0870    30.3110 h4         1 W4P       0.157000
     37 H5          -3.5090    -8.0040    28.2350 h1         1 W4P       0.043700
     38 H6          -4.3150    -9.4570    28.8520 h1         1 W4P       0.043700
     39 H7          -1.2960    -7.7010    26.8690 ha         1 W4P       0.118000
     40 H8           4.6300    -1.4710    17.4970 h1         1 W4P       0.067033
     41 H9           6.3360    -1.3200    17.9780 h1         1 W4P       0.067033
     42 H10          5.9020    -2.0220    16.3900 h1         1 W4P       0.067033
     43 H11          7.8360    -3.3010    18.5080 h2         1 W4P       0.091700
     44 H12          6.7650    -6.1710    18.6050 h1         1 W4P       0.091700
     45 H13          8.4590    -5.7070    18.7960 h1         1 W4P       0.091700
     46 H14          5.8580    -4.7260    24.4480 ha         1 W4P       0.142000
     47 H15          3.1100    -6.7340    21.8050 ha         1 W4P       0.126000
     48 H16          4.6490    -6.4810    19.8900 ha         1 W4P       0.134000
     49 H17          1.4360    -5.8780    29.6170 ha         1 W4P       0.118000
     50 H18         -0.3840   -11.5870    30.4020 h4         1 W4P       0.039100
     51 H19         -4.9580    -7.4090    29.8910 ho         1 W4P       0.444000
     52 H20          0.2740    -7.2770    25.0210 ha         1 W4P       0.123500
     53 H21          7.3990    -5.2290    15.1630 ho         1 W4P       0.479000
     54 H22          8.8760    -2.6590    16.6290 h5         1 W4P       0.044200
     55 C01          5.6150    -1.9310    17.4370 c3         1 W4P       0.040900
@<TRIPOS>BOND
     1     1    16 ar  
     2     1    17 ar  
     3     1    19 1   
     4     2    12 1   
     5     2    15 ar  
     6     2    18 ar  
     7     3    19 3   
     8     3    20 1   
     9     4    20 ar  
    10     4    21 ar  
    11     4    33 1   
    12     5    22 1   
    13     5    23 1   
    14     5    34 1   
    15     5    35 1   
    16     6    23 1   
    17     6    24 2   
    18     6    36 1   
    19     7    26 1   
    20     7    27 1   
    21     7    37 1   
    22     7    38 1   
    23     8    22 ar  
    24     8    28 ar  
    25     8    39 1   
    26     9    10 1   
    27     9    55 1   
    28    10    11 1   
    29    10    29 1   
    30    10    43 1   
    31    11    12 1   
    32    11    44 1   
    33    11    45 1   
    34    12    13 1   
    35    13    14 2   
    36    14    15 1   
    37    15    16 ar  
    38    16    46 1   
    39    17    18 ar  
    40    17    47 1   
    41    18    48 1   
    42    20    28 ar  
    43    21    22 ar  
    44    21    49 1   
    45    23    26 1   
    46    24    25 1   
    47    24    50 1   
    48    25    26 2   
    49    27    51 1   
    50    28    52 1   
    51    29    30 1   
    52    29    31 1   
    53    30    53 1   
    54    31    32 2   
    55    31    54 1   
    56    40    55 1   
    57    41    55 1   
    58    42    55 1   
@<TRIPOS>SUBSTRUCTURE
     1 W4P         1 TEMP              0 ****  ****    0 ROOT
