@<TRIPOS>MOLECULE
W4P
   55    58     1     0     0
SMALL
No Charge or Current Charge


@<TRIPOS>ATOM
      1 C10          4.5410    -5.9310    23.3470 ca         1 W4P       0.001000
      2 C13          6.2280    -5.4090    21.2070 ca         1 W4P      -0.048200
      3 C15          2.9430    -6.4200    25.3970 cg         1 W4P      -0.105000
      4 C17          1.3190    -5.6400    27.0750 ca         1 W4P      -0.088500
      5 C20         -0.4940    -7.4440    29.9380 c3         1 W4P       0.122900
      6 C22         -1.0820    -9.8710    30.4240 cc         1 W4P      -0.214000
      7 C26         -3.0350    -7.7170    28.1360 c3         1 W4P       0.134300
      8 C28          1.2000    -8.2160    28.1880 ca         1 W4P      -0.093500
      9 S02          5.1570    -3.6290    18.2870 ss         1 W4P      -0.423000
     10 C03          6.9570    -4.0290    18.0730 c3         1 W4P       0.264700
     11 C04          7.3430    -5.2500    18.9370 c3         1 W4P       0.100600
     12 N05          7.2380    -5.0010    20.3840 na         1 W4P       0.049600
     13 N06          8.1910    -4.3220    21.1300 nc         1 W4P      -0.170400
     14 N07          7.7820    -4.3000    22.4000 nd         1 W4P      -0.207400
     15 C08          6.5700    -4.9730    22.4470 ca         1 W4P       0.007400
     16 C09          5.7440    -5.2170    23.5540 ca         1 W4P      -0.003000
     17 C11          4.1940    -6.3790    22.0470 ca         1 W4P      -0.055000
     18 C12          5.0450    -6.1180    20.9520 ca         1 W4P      -0.108000
     19 C14          3.6750    -6.1980    24.4460 ch         1 W4P      -0.096000
     20 C16          2.0940    -6.6760    26.5240 ca         1 W4P       0.040000
     21 C18          0.4860    -5.8910    28.1790 ca         1 W4P      -0.093500
     22 C19          0.4180    -7.1810    28.7410 ca         1 W4P      -0.111300
     23 N21         -1.3110    -8.6630    29.8000 na         1 W4P      -0.161500
     24 C23         -2.0850   -10.7020    29.9980 cd         1 W4P       0.228900
     25 N24         -2.9250   -10.0440    29.1250 nd         1 W4P      -0.662000
     26 C25         -2.4420    -8.8110    29.0170 cc         1 W4P       0.392800
     27 O27         -3.7250    -6.6920    28.8880 oh         1 W4P      -0.663000
     28 C29          2.0330    -7.9640    27.0840 ca         1 W4P      -0.088500
     29 N30          7.3370    -4.2180    16.6570 n          1 W4P      -0.297300
     30 O31          6.6650    -5.2850    15.9360 oh         1 W4P      -0.443100
     31 C32          8.3550    -3.4550    16.0350 c          1 W4P       0.584900
     32 O33          8.6850    -3.6170    14.8640 o          1 W4P      -0.594100
     33 H1           1.3610    -4.6400    26.6490 ha         1 W4P       0.123500
     34 H2           0.1240    -7.5380    30.8400 h1         1 W4P       0.071700
     35 H3          -1.1650    -6.5900    30.0920 h1         1 W4P       0.071700
     36 H4          -0.2560   -10.0500    31.1010 h4         1 W4P       0.157000
     37 H5          -2.2230    -7.2700    27.5470 h1         1 W4P       0.043700
     38 H6          -3.7250    -8.1850    27.4220 h1         1 W4P       0.043700
     39 H7           1.1660    -9.2170    28.6120 ha         1 W4P       0.118000
     40 H8           4.0660    -1.5700    17.5340 h1         1 W4P       0.067033
     41 H9           5.7660    -1.2710    17.9960 h1         1 W4P       0.067033
     42 H10          5.3860    -2.0430    16.4270 h1         1 W4P       0.067033
     43 H11          7.5250    -3.1670    18.4440 h2         1 W4P       0.091700
     44 H12          6.7140    -6.1040    18.6650 h1         1 W4P       0.091700
     45 H13          8.3820    -5.5240    18.7180 h1         1 W4P       0.091700
     46 H14          6.0270    -4.8640    24.5430 ha         1 W4P       0.142000
     47 H15          3.2670    -6.9250    21.8880 ha         1 W4P       0.126000
     48 H16          4.7830    -6.4530    19.9510 ha         1 W4P       0.134000
     49 H17         -0.1080    -5.0800    28.5950 ha         1 W4P       0.118000
     50 H18         -2.2460   -11.7390    30.2700 h4         1 W4P       0.039100
     51 H19         -4.1120    -6.0650    28.2360 ho         1 W4P       0.444000
     52 H20          2.6310    -8.7710    26.6650 ha         1 W4P       0.123500
     53 H21          5.8960    -4.8570    15.4930 ho         1 W4P       0.479000
     54 H22          8.8110    -2.7030    16.7080 h5         1 W4P       0.044200
     55 C01          5.0890    -1.9640    17.4810 c3         1 W4P       0.040900
@<TRIPOS>BOND
     1     1    16 ar  
     2     1    17 ar  
     3     1    19 1   
     4     2    12 1   
     5     2    15 ar  
     6     2    18 ar  
     7     3    19 3   
     8     3    20 1   
     9     4    20 ar  
    10     4    21 ar  
    11     4    33 1   
    12     5    22 1   
    13     5    23 1   
    14     5    34 1   
    15     5    35 1   
    16     6    23 1   
    17     6    24 2   
    18     6    36 1   
    19     7    26 1   
    20     7    27 1   
    21     7    37 1   
    22     7    38 1   
    23     8    22 ar  
    24     8    28 ar  
    25     8    39 1   
    26     9    10 1   
    27     9    55 1   
    28    10    11 1   
    29    10    29 1   
    30    10    43 1   
    31    11    12 1   
    32    11    44 1   
    33    11    45 1   
    34    12    13 1   
    35    13    14 2   
    36    14    15 1   
    37    15    16 ar  
    38    16    46 1   
    39    17    18 ar  
    40    17    47 1   
    41    18    48 1   
    42    20    28 ar  
    43    21    22 ar  
    44    21    49 1   
    45    23    26 1   
    46    24    25 1   
    47    24    50 1   
    48    25    26 2   
    49    27    51 1   
    50    28    52 1   
    51    29    30 1   
    52    29    31 1   
    53    30    53 1   
    54    31    32 2   
    55    31    54 1   
    56    40    55 1   
    57    41    55 1   
    58    42    55 1   
@<TRIPOS>SUBSTRUCTURE
     1 W4P         1 TEMP              0 ****  ****    0 ROOT
