@<TRIPOS>MOLECULE
W4R
   31    31     1     0     0
SMALL
abcg2


@<TRIPOS>ATOM
      1 C7          27.8240    17.2670    39.2490 ca         1 W4R       0.144000
      2 C8          28.8950    17.3290    40.1300 ca         1 W4R      -0.101500
      3 C9          30.0180    16.5530    39.8830 ca         1 W4R      -0.090000
      4 O1          23.4610    11.6660    36.7370 os         1 W4R      -0.448100
      5 C1          23.6800    14.0920    37.0110 c3         1 W4R      -0.007000
      6 C6          27.8260    16.4590    38.1080 ca         1 W4R      -0.048300
      7 C4          25.6530    15.3350    37.5510 c          1 W4R       0.610100
      8 C3          22.2330    11.7390    37.4960 c3         1 W4R       0.161900
      9 C2          24.1930    12.7580    36.4840 c          1 W4R       0.578100
     10 CL1         26.4130    18.2380    39.6170 cl         1 W4R      -0.202500
     11 C10         30.0620    15.7210    38.7730 ca         1 W4R      -0.101500
     12 C11         28.9730    15.6840    37.9140 ca         1 W4R       0.144000
     13 CL          29.0560    14.5930    36.5440 cl         1 W4R      -0.202500
     14 O2          25.7940    14.6540    38.5650 o          1 W4R      -0.586100
     15 N           24.5880    15.1790    36.7260 n          1 W4R      -0.398800
     16 C           24.4630    15.8430    35.4320 c3         1 W4R       0.091300
     17 O           25.2150    12.6430    35.8500 o          1 W4R      -0.428000
     18 H1          28.8430    17.9730    40.9960 ha         1 W4R       0.134000
     19 H2          30.8600    16.5930    40.5610 ha         1 W4R       0.124000
     20 H3          22.7120    14.3050    36.5570 h1         1 W4R       0.079700
     21 H4          23.5300    14.0130    38.0860 h1         1 W4R       0.079700
     22 H5          27.0160    16.2140    36.1510 hc         1 W4R       0.080200
     23 H6          26.1600    17.3750    37.1390 hc         1 W4R       0.080200
     24 H7          21.8490    10.7230    37.5120 h1         1 W4R       0.047367
     25 H8          22.4300    12.0740    38.5140 h1         1 W4R       0.047367
     26 H9          21.5160    12.3970    37.0080 h1         1 W4R       0.047367
     27 H10         30.9260    15.1040    38.5760 ha         1 W4R       0.134000
     28 H11         24.8140    16.8700    35.4910 h1         1 W4R       0.045367
     29 H12         25.0240    15.3160    34.6570 h1         1 W4R       0.045367
     30 H13         23.4120    15.8620    35.1530 h1         1 W4R       0.045367
     31 C5          26.6650    16.4100    37.1630 c3         1 W4R      -0.105100
@<TRIPOS>BOND
     1     1     2 ar  
     2     1     6 ar  
     3     1    10 1   
     4     2     3 ar  
     5     2    18 1   
     6     3    11 ar  
     7     3    19 1   
     8     4     8 1   
     9     4     9 1   
    10     5     9 1   
    11     5    15 1   
    12     5    20 1   
    13     5    21 1   
    14     6    12 ar  
    15     6    31 1   
    16     7    14 2   
    17     7    15 1   
    18     7    31 1   
    19     8    24 1   
    20     8    25 1   
    21     8    26 1   
    22     9    17 2   
    23    11    12 ar  
    24    11    27 1   
    25    12    13 1   
    26    15    16 1   
    27    16    28 1   
    28    16    29 1   
    29    16    30 1   
    30    22    31 1   
    31    23    31 1   
@<TRIPOS>SUBSTRUCTURE
     1 W4R         1 TEMP              0 ****  ****    0 ROOT
