@<TRIPOS>MOLECULE
W4R
   31    31     1     0     0
SMALL
No Charge or Current Charge


@<TRIPOS>ATOM
      1 C7          27.5870    17.1190    38.8780 ca         1 W4R       0.144000
      2 C8          28.3640    17.4290    40.0070 ca         1 W4R      -0.101500
      3 C9          29.6500    16.8890    40.1520 ca         1 W4R      -0.090000
      4 O1          22.7840    11.8140    36.5090 os         1 W4R      -0.448100
      5 C1          23.8200    13.9990    37.1300 c3         1 W4R      -0.007000
      6 C6          28.0890    16.2620    37.8670 ca         1 W4R      -0.048300
      7 C4          26.2000    14.8200    36.9590 c          1 W4R       0.610100
      8 C3          22.0610    11.8750    37.7560 c3         1 W4R       0.161900
      9 C2          23.6610    12.8140    36.1360 c          1 W4R       0.578100
     10 Cl1         25.9720    17.8220    38.7710 cl         1 W4R      -0.202500
     11 C10         30.1570    16.0310    39.1640 ca         1 W4R      -0.101500
     12 C11         29.3880    15.7150    38.0310 ca         1 W4R       0.144000
     13 Cl          30.0970    14.6140    36.8460 cl         1 W4R      -0.202500
     14 O2          26.5820    13.7540    37.4280 o          1 W4R      -0.586100
     15 N           24.8170    15.0360    36.7260 n          1 W4R      -0.398800
     16 C           24.3240    16.1350    35.8620 c3         1 W4R       0.091300
     17 O           24.2630    12.7580    35.0730 o          1 W4R      -0.428000
     18 H1          27.9650    18.0890    40.7730 ha         1 W4R       0.134000
     19 H2          30.2500    17.1300    41.0280 ha         1 W4R       0.124000
     20 H3          22.8380    14.4720    37.2520 h1         1 W4R       0.079700
     21 H4          24.1120    13.5900    38.1050 h1         1 W4R       0.079700
     22 H5          27.8340    15.5670    35.8050 hc         1 W4R       0.080200
     23 H6          26.7430    16.8310    36.2620 hc         1 W4R       0.080200
     24 H7          21.4140    10.9950    37.8600 h1         1 W4R       0.047367
     25 H8          22.7460    11.8840    38.6140 h1         1 W4R       0.047367
     26 H9          21.4190    12.7650    37.8010 h1         1 W4R       0.047367
     27 H10         31.1520    15.6060    39.2770 ha         1 W4R       0.134000
     28 H11         24.4010    17.0920    36.3930 h1         1 W4R       0.045367
     29 H12         24.9150    16.1800    34.9380 h1         1 W4R       0.045367
     30 H13         23.2730    15.9690    35.5920 h1         1 W4R       0.045367
     31 C5          27.2260    15.9260    36.6390 c3         1 W4R      -0.105100
@<TRIPOS>BOND
     1     1     2 ar  
     2     1     6 ar  
     3     1    10 1   
     4     2     3 ar  
     5     2    18 1   
     6     3    11 ar  
     7     3    19 1   
     8     4     8 1   
     9     4     9 1   
    10     5     9 1   
    11     5    15 1   
    12     5    20 1   
    13     5    21 1   
    14     6    12 ar  
    15     6    31 1   
    16     7    14 2   
    17     7    15 1   
    18     7    31 1   
    19     8    24 1   
    20     8    25 1   
    21     8    26 1   
    22     9    17 2   
    23    11    12 ar  
    24    11    27 1   
    25    12    13 1   
    26    15    16 1   
    27    16    28 1   
    28    16    29 1   
    29    16    30 1   
    30    22    31 1   
    31    23    31 1   
@<TRIPOS>SUBSTRUCTURE
     1 W4R         1 TEMP              0 ****  ****    0 ROOT
