@<TRIPOS>MOLECULE
W4S
   19    20     1     0     0
SMALL
abcg2


@<TRIPOS>ATOM
      1 C01        -44.4170   -29.2170     2.2080 c3         1 W4S       0.061900
      2 C03        -46.8310   -29.0180     2.8520 cc         1 W4S      -0.178100
      3 C04        -47.5760   -28.9510     3.9930 cd         1 W4S      -0.206200
      4 C05        -46.6470   -29.0120     5.0720 ca         1 W4S      -0.260800
      5 C06        -46.6920   -28.9920     6.4790 ca         1 W4S       0.432900
      6 C09        -44.4050   -29.1680     6.5010 ca         1 W4S       0.178900
      7 C11        -45.3680   -29.1160     4.5130 ca         1 W4S       0.148500
      8 N02        -45.4960   -29.1170     3.1630 na         1 W4S      -0.181400
      9 N07        -47.8450   -28.9200     7.1600 nv         1 W4S      -1.073900
     10 N08        -45.5530   -29.0710     7.1720 nb         1 W4S      -0.303000
     11 N10        -44.2230   -29.1970     5.1970 nb         1 W4S      -0.234000
     12 H011       -43.4710   -29.2090     2.7420 h1         1 W4S       0.055700
     13 H012       -44.4870   -30.1420     1.6380 h1         1 W4S       0.055700
     14 H013       -44.4370   -28.3740     1.5200 h1         1 W4S       0.055700
     15 H031       -47.1480   -29.0040     1.8220 h4         1 W4S       0.215000
     16 H041       -48.6500   -28.8700     4.0420 ha         1 W4S       0.201000
     17 H091       -43.5110   -29.2290     7.1140 h5         1 W4S       0.043100
     18 H071       -47.8220   -28.7990     8.1580 hn         1 W4S       0.494000
     19 H072       -48.7120   -28.7230     6.6930 hn         1 W4S       0.494000
@<TRIPOS>BOND
     1     1     8 1   
     2     1    12 1   
     3     1    13 1   
     4     1    14 1   
     5     2     3 2   
     6     2     8 1   
     7     2    15 1   
     8     3     4 1   
     9     3    16 1   
    10     4     5 ar  
    11     4     7 ar  
    12     5     9 1   
    13     5    10 ar  
    14     6    10 ar  
    15     6    11 ar  
    16     6    17 1   
    17     7     8 1   
    18     7    11 ar  
    19     9    18 1   
    20     9    19 1   
@<TRIPOS>SUBSTRUCTURE
     1 W4S         1 TEMP              0 ****  ****    0 ROOT
