@<TRIPOS>MOLECULE
W4S
   19    20     1     0     0
SMALL
No Charge or Current Charge


@<TRIPOS>ATOM
      1 C01        -44.4030   -29.1790     2.1800 c3         1 W4S       0.061900
      2 C03        -46.8940   -28.9060     2.7920 cc         1 W4S      -0.178100
      3 C04        -47.5330   -28.8760     4.0200 cd         1 W4S      -0.206200
      4 C05        -46.5690   -29.0310     5.0850 ca         1 W4S      -0.260800
      5 C06        -46.6810   -29.0700     6.4760 ca         1 W4S       0.432900
      6 C09        -44.4110   -29.3460     6.5830 ca         1 W4S       0.178900
      7 C11        -45.3360   -29.1560     4.4950 ca         1 W4S       0.148500
      8 N02        -45.5330   -29.0800     3.1180 na         1 W4S      -0.181400
      9 N07        -47.8650   -28.9460     7.1240 nv         1 W4S      -1.073900
     10 N08        -45.5920   -29.2290     7.2430 nb         1 W4S      -0.303000
     11 N10        -44.2230   -29.3180     5.2400 nb         1 W4S      -0.234000
     12 H011       -43.6880   -28.3710     2.3770 h1         1 W4S       0.055700
     13 H012       -43.9010   -30.1460     2.3080 h1         1 W4S       0.055700
     14 H013       -44.7660   -29.0960     1.1480 h1         1 W4S       0.055700
     15 H031       -47.2690   -28.8240     1.7750 h4         1 W4S       0.215000
     16 H041       -48.6080   -28.7580     4.1490 ha         1 W4S       0.201000
     17 H091       -43.5210   -29.4750     7.1970 h5         1 W4S       0.043100
     18 H071       -47.8410   -28.7490     8.1210 hn         1 W4S       0.494000
     19 H072       -48.6570   -28.5730     6.6080 hn         1 W4S       0.494000
@<TRIPOS>BOND
     1     1     8 1   
     2     1    12 1   
     3     1    13 1   
     4     1    14 1   
     5     2     3 2   
     6     2     8 1   
     7     2    15 1   
     8     3     4 1   
     9     3    16 1   
    10     4     5 ar  
    11     4     7 ar  
    12     5     9 1   
    13     5    10 ar  
    14     6    10 ar  
    15     6    11 ar  
    16     6    17 1   
    17     7     8 1   
    18     7    11 ar  
    19     9    18 1   
    20     9    19 1   
@<TRIPOS>SUBSTRUCTURE
     1 W4S         1 TEMP              0 ****  ****    0 ROOT
