@<TRIPOS>MOLECULE
W4T
   22    22     1     0     0
SMALL
abcg2


@<TRIPOS>ATOM
      1 CG          21.1660   -11.6180    14.1930 ca         1 W4T      -0.092300
      2 CD2         21.8130   -10.7800    13.2860 ca         1 W4T      -0.102000
      3 CE2         23.0100   -11.1580    12.7010 ca         1 W4T      -0.119000
      4 CZ          23.5980   -12.3790    13.0090 ca         1 W4T      -0.110000
      5 CE1         22.9530   -13.2070    13.9130 ca         1 W4T      -0.015900
      6 CD1         21.7500   -12.8430    14.5030 ca         1 W4T      -0.082000
      7 N           19.8710    -9.9250    15.4930 n8         1 W4T      -0.961200
      8 C           17.3140   -11.0640    14.3950 c          1 W4T       0.732000
      9 CA          19.8450   -11.2200    14.8290 c3         1 W4T       0.211800
     10 CB          18.7250   -11.2380    13.7920 c3         1 W4T      -0.201400
     11 O           17.0590   -11.7360    15.4140 o          1 W4T      -0.734000
     12 BR1         23.7370   -14.8710    14.3610 br         1 W4T      -0.138100
     13 OXT         16.5360   -10.2980    13.7920 o          1 W4T      -0.734000
     14 HD2         21.3790    -9.8210    13.0290 ha         1 W4T       0.118000
     15 HE2         23.5000   -10.5000    11.9960 ha         1 W4T       0.103000
     16 HZ          24.5350   -12.6670    12.5520 ha         1 W4T       0.113000
     17 HD1         21.2610   -13.5040    15.2090 ha         1 W4T       0.134000
     18 H           20.6500    -9.8780    16.1380 hn         1 W4T       0.374500
     19 H2          20.0160    -9.1840    14.8180 hn         1 W4T       0.374500
     20 HA          19.6050   -11.9720    15.5860 h1         1 W4T       0.087700
     21 HB1C        18.7530   -12.1980    13.2650 hc         1 W4T       0.019700
     22 HB2C        18.9190   -10.4700    13.0360 hc         1 W4T       0.019700
@<TRIPOS>BOND
     1     1     2 ar  
     2     1     6 ar  
     3     1     9 1   
     4     2     3 ar  
     5     2    14 1   
     6     3     4 ar  
     7     3    15 1   
     8     4     5 ar  
     9     4    16 1   
    10     5     6 ar  
    11     5    12 1   
    12     6    17 1   
    13     7     9 1   
    14     7    18 1   
    15     7    19 1   
    16     8    10 1   
    17     8    11 1   
    18     8    13 1   
    19     9    10 1   
    20     9    20 1   
    21    10    21 1   
    22    10    22 1   
@<TRIPOS>SUBSTRUCTURE
     1 W4T         1 TEMP              0 ****  ****    0 ROOT
