@<TRIPOS>MOLECULE
W4T
   22    22     1     0     0
SMALL
No Charge or Current Charge


@<TRIPOS>ATOM
      1 CG          21.1180   -11.6250    14.1510 ca         1 W4T      -0.092300
      2 CD2         21.6740   -10.9150    13.0620 ca         1 W4T      -0.102000
      3 CE2         22.9080   -11.3040    12.5120 ca         1 W4T      -0.119000
      4 CZ          23.6010   -12.4030    13.0440 ca         1 W4T      -0.110000
      5 CE1         23.0580   -13.1100    14.1280 ca         1 W4T      -0.015900
      6 CD1         21.8250   -12.7250    14.6810 ca         1 W4T      -0.082000
      7 N           19.9700    -9.9930    15.5610 n8         1 W4T      -0.961200
      8 C           17.2830   -11.1280    14.3550 c          1 W4T       0.732000
      9 CA          19.7770   -11.2150    14.7650 c3         1 W4T       0.211800
     10 CB          18.6690   -11.0240    13.7030 c3         1 W4T      -0.201400
     11 O           16.8140   -12.2440    14.5240 o          1 W4T      -0.734000
     12 Br1         24.0020   -14.6050    14.8570 br         1 W4T      -0.138100
     13 OXT         16.7020   -10.0990    14.6710 o          1 W4T      -0.734000
     14 HD2         21.1510   -10.0600    12.6400 ha         1 W4T       0.118000
     15 HE2         23.3270   -10.7520    11.6730 ha         1 W4T       0.103000
     16 HZ          24.5560   -12.7030    12.6180 ha         1 W4T       0.113000
     17 HD1         21.4180   -13.2830    15.5220 ha         1 W4T       0.134000
     18 H           20.7430   -10.1520    16.2150 hn         1 W4T       0.374500
     19 H2          20.3260    -9.2600    14.9410 hn         1 W4T       0.374500
     20 HA          19.4560   -12.0220    15.4440 h1         1 W4T       0.087700
     21 HB1C        18.8010   -11.8650    13.0100 hc         1 W4T       0.019700
     22 HB2C        18.8150   -10.0440    13.2320 hc         1 W4T       0.019700
@<TRIPOS>BOND
     1     1     2 ar  
     2     1     6 ar  
     3     1     9 1   
     4     2     3 ar  
     5     2    14 1   
     6     3     4 ar  
     7     3    15 1   
     8     4     5 ar  
     9     4    16 1   
    10     5     6 ar  
    11     5    12 1   
    12     6    17 1   
    13     7     9 1   
    14     7    18 1   
    15     7    19 1   
    16     8    10 1   
    17     8    11 1   
    18     8    13 1   
    19     9    10 1   
    20     9    20 1   
    21    10    21 1   
    22    10    22 1   
@<TRIPOS>SUBSTRUCTURE
     1 W4T         1 TEMP              0 ****  ****    0 ROOT
