@<TRIPOS>MOLECULE
W4W
   33    33     1     0     0
SMALL
abcg2


@<TRIPOS>ATOM
      1 N1          -4.9390    17.0430   -36.4680 n1         1 W4W      -0.450000
      2 C7          -0.8140    15.2180   -38.0510 c          1 W4W       0.594100
      3 C8          -1.2220    16.6710   -37.8400 c3         1 W4W      -0.034400
      4 C9          -3.8890    16.3090   -38.7340 c3         1 W4W       0.101700
      5 C1           0.5590    12.5910   -36.7990 c3         1 W4W      -0.089400
      6 C5          -3.2460    13.5090   -35.9040 c6         1 W4W      -0.090400
      7 C6          -2.1020    14.5060   -36.0260 c6         1 W4W       0.105000
      8 C4          -2.7150    12.0820   -35.9030 c6         1 W4W      -0.073400
      9 C3          -1.9050    11.8400   -37.1740 c6         1 W4W      -0.079400
     10 C2          -0.8030    12.8720   -37.4590 c6         1 W4W       0.108700
     11 C10         -4.4940    16.7170   -37.4780 c1         1 W4W       0.294900
     12 S           -2.3770    17.2550   -39.1240 ss         1 W4W      -0.349000
     13 O           -0.0680    14.9650   -39.0030 o          1 W4W      -0.599100
     14 N           -1.2780    14.2580   -37.2180 n          1 W4W      -0.409800
     15 C            0.6380    12.5160   -35.2750 c3         1 W4W      -0.086100
     16 H1          -0.3310    17.2730   -38.0130 h1         1 W4W       0.095700
     17 H2          -1.6040    16.9200   -36.8560 h1         1 W4W       0.095700
     18 H3          -3.6870    15.2380   -38.7170 h1         1 W4W       0.103700
     19 H4          -4.5820    16.5090   -39.5520 h1         1 W4W       0.103700
     20 H5           0.9090    11.6420   -37.2170 hc         1 W4W       0.050700
     21 H6           1.2530    13.3560   -37.1560 hc         1 W4W       0.050700
     22 H7          -3.7930    13.7290   -34.9850 hc         1 W4W       0.050200
     23 H8          -3.9410    13.6450   -36.7380 hc         1 W4W       0.050200
     24 H9          -1.4720    14.4440   -35.1350 h1         1 W4W       0.046700
     25 H10         -2.5020    15.5110   -36.0610 h1         1 W4W       0.046700
     26 H11         -3.5400    11.3670   -35.8540 hc         1 W4W       0.046700
     27 H12         -2.1040    11.9240   -35.0120 hc         1 W4W       0.046700
     28 H13         -2.5970    11.8510   -38.0210 hc         1 W4W       0.048200
     29 H14         -1.4410    10.8510   -37.1580 hc         1 W4W       0.048200
     30 H15         -0.6090    12.8350   -38.5280 h1         1 W4W       0.078700
     31 H16          1.6690    12.3160   -34.9740 hc         1 W4W       0.032367
     32 H17          0.3370    13.4510   -34.8010 hc         1 W4W       0.032367
     33 H18          0.0180    11.7160   -34.8720 hc         1 W4W       0.032367
@<TRIPOS>BOND
     1     1    11 3   
     2     2     3 1   
     3     2    13 2   
     4     2    14 1   
     5     3    12 1   
     6     3    16 1   
     7     3    17 1   
     8     4    11 1   
     9     4    12 1   
    10     4    18 1   
    11     4    19 1   
    12     5    10 1   
    13     5    15 1   
    14     5    20 1   
    15     5    21 1   
    16     6     7 1   
    17     6     8 1   
    18     6    22 1   
    19     6    23 1   
    20     7    14 1   
    21     7    24 1   
    22     7    25 1   
    23     8     9 1   
    24     8    26 1   
    25     8    27 1   
    26     9    10 1   
    27     9    28 1   
    28     9    29 1   
    29    10    14 1   
    30    10    30 1   
    31    15    31 1   
    32    15    32 1   
    33    15    33 1   
@<TRIPOS>SUBSTRUCTURE
     1 W4W         1 TEMP              0 ****  ****    0 ROOT
