@<TRIPOS>MOLECULE
W4W
   33    33     1     0     0
SMALL
No Charge or Current Charge


@<TRIPOS>ATOM
      1 N1          -5.1860    17.0150   -36.6490 n1         1 W4W      -0.450000
      2 C7          -0.7320    15.3300   -38.0200 c          1 W4W       0.594100
      3 C8          -1.1540    16.8030   -37.8020 c3         1 W4W      -0.034400
      4 C9          -3.8380    16.3500   -38.8130 c3         1 W4W       0.101700
      5 C1           0.5340    12.5310   -36.8690 c3         1 W4W      -0.089400
      6 C5          -3.2610    13.4700   -35.8140 c6         1 W4W      -0.090400
      7 C6          -2.1540    14.5230   -36.0370 c6         1 W4W       0.105000
      8 C4          -2.6930    12.0460   -35.8160 c6         1 W4W      -0.073400
      9 C3          -1.9520    11.7910   -37.1440 c6         1 W4W      -0.079400
     10 C2          -0.8700    12.8590   -37.4890 c6         1 W4W       0.108700
     11 C10         -4.5990    16.7310   -37.6160 c1         1 W4W       0.294900
     12 S           -2.3450    17.4270   -39.1000 ss         1 W4W      -0.349000
     13 O            0.0850    15.0750   -38.8980 o          1 W4W      -0.599100
     14 N           -1.3100    14.2790   -37.2520 n          1 W4W      -0.409800
     15 C            0.6870    12.4980   -35.3330 c3         1 W4W      -0.086100
     16 H1          -0.2360    17.3980   -37.8730 h1         1 W4W       0.095700
     17 H2          -1.5480    16.9700   -36.7970 h1         1 W4W       0.095700
     18 H3          -3.5340    15.2990   -38.7280 h1         1 W4W       0.103700
     19 H4          -4.5050    16.4350   -39.6790 h1         1 W4W       0.103700
     20 H5           0.8690    11.5600   -37.2540 hc         1 W4W       0.050700
     21 H6           1.2630    13.2540   -37.2530 hc         1 W4W       0.050700
     22 H7          -3.7740    13.6690   -34.8630 hc         1 W4W       0.050200
     23 H8          -4.0190    13.5660   -36.6030 hc         1 W4W       0.050200
     24 H9          -1.5060    14.5590   -35.1510 h1         1 W4W       0.046700
     25 H10         -2.6580    15.4920   -36.0920 h1         1 W4W       0.046700
     26 H11         -3.5100    11.3200   -35.7020 hc         1 W4W       0.046700
     27 H12         -2.0350    11.9030   -34.9520 hc         1 W4W       0.046700
     28 H13         -2.6950    11.7830   -37.9540 hc         1 W4W       0.048200
     29 H14         -1.5090    10.7860   -37.1410 hc         1 W4W       0.048200
     30 H15         -0.7190    12.7520   -38.5740 h1         1 W4W       0.078700
     31 H16          1.7450    12.3790   -35.0690 hc         1 W4W       0.032367
     32 H17          0.3350    13.4260   -34.8720 hc         1 W4W       0.032367
     33 H18          0.1500    11.6490   -34.8980 hc         1 W4W       0.032367
@<TRIPOS>BOND
     1     1    11 3   
     2     2     3 1   
     3     2    13 2   
     4     2    14 1   
     5     3    12 1   
     6     3    16 1   
     7     3    17 1   
     8     4    11 1   
     9     4    12 1   
    10     4    18 1   
    11     4    19 1   
    12     5    10 1   
    13     5    15 1   
    14     5    20 1   
    15     5    21 1   
    16     6     7 1   
    17     6     8 1   
    18     6    22 1   
    19     6    23 1   
    20     7    14 1   
    21     7    24 1   
    22     7    25 1   
    23     8     9 1   
    24     8    26 1   
    25     8    27 1   
    26     9    10 1   
    27     9    28 1   
    28     9    29 1   
    29    10    14 1   
    30    10    30 1   
    31    15    31 1   
    32    15    32 1   
    33    15    33 1   
@<TRIPOS>SUBSTRUCTURE
     1 W4W         1 TEMP              0 ****  ****    0 ROOT
