@<TRIPOS>MOLECULE
W4X
   42    45     1     0     0
SMALL
abcg2


@<TRIPOS>ATOM
      1 C10          6.2760   -14.2300     3.1650 ca         1 W4X      -0.055200
      2 C13          4.4150   -15.4420     2.6290 cc         1 W4X      -0.168400
      3 C17          8.7960   -14.7520     1.4050 ca         1 W4X      -0.113000
      4 C20          9.6600   -17.3610     1.8470 ca         1 W4X       0.054100
      5 C21          8.3910   -16.9740     2.2400 ca         1 W4X      -0.171000
      6 C24          3.0840   -16.0340     2.5250 c          1 W4X       0.477300
      7 C01          2.6210   -10.4490     6.9380 ca         1 W4X      -0.117000
      8 C02          3.1120    -9.1510     6.8970 ca         1 W4X      -0.126000
      9 C03          4.2320    -8.8700     6.1250 ca         1 W4X      -0.117000
     10 C04          4.8530    -9.8780     5.4020 ca         1 W4X      -0.102000
     11 C05          4.3690   -11.1880     5.4330 cp         1 W4X      -0.007000
     12 C06          3.2440   -11.4560     6.2170 ca         1 W4X      -0.102000
     13 C07          5.0210   -12.2600     4.6520 cp         1 W4X      -0.091000
     14 C08          6.4220   -12.2760     4.4980 ca         1 W4X      -0.093000
     15 C09          7.0620   -13.2470     3.7560 ca         1 W4X      -0.142000
     16 C11          4.8780   -14.2710     3.3280 ca         1 W4X      -0.045800
     17 C12          4.2570   -13.2570     4.0620 ca         1 W4X      -0.011000
     18 C14          5.5310   -16.0260     2.0810 cd         1 W4X      -0.135100
     19 C16          7.9570   -15.6710     2.0110 ca         1 W4X       0.028800
     20 C18         10.0790   -15.1360     1.0370 ca         1 W4X      -0.115000
     21 C19         10.5220   -16.4320     1.2450 ca         1 W4X       0.104100
     22 C25          1.9400   -15.4090     3.3170 c          1 W4X       0.664000
     23 N15          6.6430   -15.3140     2.3890 na         1 W4X      -0.006500
     24 O23         11.7680   -16.7720     0.8640 oh         1 W4X      -0.540100
     25 O26          1.6950   -15.9470     4.4070 o          1 W4X      -0.703000
     26 O27          1.3830   -14.4450     2.7650 o          1 W4X      -0.703000
     27 O28          2.8860   -17.0260     1.8380 o          1 W4X      -0.589100
     28 H1           8.4590   -13.7440     1.2030 ha         1 W4X       0.137000
     29 H2           7.7390   -17.6870     2.7320 ha         1 W4X       0.134000
     30 H3           1.7530   -10.6830     7.5420 ha         1 W4X       0.103000
     31 H4           2.6260    -8.3650     7.4610 ha         1 W4X       0.098000
     32 H5           4.6210    -7.8610     6.0790 ha         1 W4X       0.103000
     33 H6           5.7110    -9.6340     4.7870 ha         1 W4X       0.121000
     34 H7           2.8610   -12.4670     6.2800 ha         1 W4X       0.121000
     35 H8           7.0210   -11.5180     4.9860 ha         1 W4X       0.098000
     36 H9           8.1390   -13.2410     3.6560 ha         1 W4X       0.106000
     37 H10          3.1790   -13.2250     4.1420 ha         1 W4X       0.166000
     38 H11          5.6060   -16.9190     1.4800 h4         1 W4X       0.219000
     39 H12         10.7430   -14.4220     0.5650 ha         1 W4X       0.128000
     40 H13          9.5050   -19.1910     2.4170 ho         1 W4X       0.478000
     41 H14         11.9460   -17.6970     1.0730 ho         1 W4X       0.478000
     42 O22         10.1570   -18.6040     2.0180 oh         1 W4X      -0.564100
@<TRIPOS>BOND
     1     1    15 ar  
     2     1    16 ar  
     3     1    23 1   
     4     2     6 1   
     5     2    16 1   
     6     2    18 2   
     7     3    19 ar  
     8     3    20 ar  
     9     3    28 1   
    10     4     5 ar  
    11     4    21 ar  
    12     4    42 1   
    13     5    19 ar  
    14     5    29 1   
    15     6    22 1   
    16     6    27 2   
    17     7     8 ar  
    18     7    12 ar  
    19     7    30 1   
    20     8     9 ar  
    21     8    31 1   
    22     9    10 ar  
    23     9    32 1   
    24    10    11 ar  
    25    10    33 1   
    26    11    12 ar  
    27    11    13 1   
    28    12    34 1   
    29    13    14 ar  
    30    13    17 ar  
    31    14    15 ar  
    32    14    35 1   
    33    15    36 1   
    34    16    17 ar  
    35    17    37 1   
    36    18    23 1   
    37    18    38 1   
    38    19    23 1   
    39    20    21 ar  
    40    20    39 1   
    41    21    24 1   
    42    22    25 1   
    43    22    26 1   
    44    24    41 1   
    45    40    42 1   
@<TRIPOS>SUBSTRUCTURE
     1 W4X         1 TEMP              0 ****  ****    0 ROOT
