@<TRIPOS>MOLECULE
W4X
   42    45     1     0     0
SMALL
No Charge or Current Charge


@<TRIPOS>ATOM
      1 C10          6.3340   -14.6210     3.7030 ca         1 W4X      -0.055200
      2 C13          4.5050   -15.6000     2.7920 cc         1 W4X      -0.168400
      3 C17          8.2940   -14.9370     1.3890 ca         1 W4X      -0.113000
      4 C20          9.9210   -17.2000     1.7680 ca         1 W4X       0.054100
      5 C21          8.7410   -17.0520     2.5170 ca         1 W4X      -0.171000
      6 C24          3.1290   -15.9450     2.3250 c          1 W4X       0.477300
      7 C01          2.4690   -10.2130     6.6550 ca         1 W4X      -0.117000
      8 C02          3.1180    -8.9690     6.6780 ca         1 W4X      -0.126000
      9 C03          4.3990    -8.8380     6.1180 ca         1 W4X      -0.117000
     10 C04          5.0290    -9.9510     5.5350 ca         1 W4X      -0.102000
     11 C05          4.3930   -11.2180     5.4980 cp         1 W4X      -0.007000
     12 C06          3.0990   -11.3250     6.0700 ca         1 W4X      -0.102000
     13 C07          5.0650   -12.4030     4.8750 cp         1 W4X      -0.091000
     14 C08          6.4760   -12.5820     4.9800 ca         1 W4X      -0.093000
     15 C09          7.1170   -13.6910     4.3970 ca         1 W4X      -0.142000
     16 C11          4.9750   -14.4800     3.5880 ca         1 W4X      -0.045800
     17 C12          4.3120   -13.3780     4.1600 ca         1 W4X      -0.011000
     18 C14          5.6300   -16.3490     2.4490 cd         1 W4X      -0.135100
     19 C16          7.9230   -15.9200     2.3310 ca         1 W4X       0.028800
     20 C18          9.4740   -15.0840     0.6390 ca         1 W4X      -0.115000
     21 C19         10.2860   -16.2130     0.8290 ca         1 W4X       0.104100
     22 C25          1.8970   -15.0010     2.7660 c          1 W4X       0.664000
     23 N15          6.7550   -15.7810     3.0780 na         1 W4X      -0.006500
     24 O23         11.4330   -16.3660     0.1060 oh         1 W4X      -0.540100
     25 O26          1.3420   -15.2280     3.8400 o          1 W4X      -0.703000
     26 O27          1.5520   -14.0960     2.0080 o          1 W4X      -0.703000
     27 O28          2.9370   -16.9400     1.6140 o          1 W4X      -0.589100
     28 H1           7.6650   -14.0620     1.2400 ha         1 W4X       0.137000
     29 H2           8.4520   -17.8070     3.2450 ha         1 W4X       0.134000
     30 H3           1.4780   -10.3170     7.0920 ha         1 W4X       0.103000
     31 H4           2.6310    -8.1080     7.1300 ha         1 W4X       0.098000
     32 H5           4.9030    -7.8740     6.1320 ha         1 W4X       0.103000
     33 H6           6.0150    -9.8260     5.0950 ha         1 W4X       0.121000
     34 H7           2.5840   -12.2830     6.0760 ha         1 W4X       0.121000
     35 H8           7.0750   -11.8610     5.5310 ha         1 W4X       0.098000
     36 H9           8.1930   -13.8230     4.4870 ha         1 W4X       0.106000
     37 H10          3.2420   -13.2470     4.0510 ha         1 W4X       0.166000
     38 H11          5.7090   -17.2210     1.8070 h4         1 W4X       0.219000
     39 H12          9.7570   -14.3250    -0.0860 ha         1 W4X       0.128000
     40 H13         10.3140   -18.8770     2.6350 ho         1 W4X       0.478000
     41 H14         11.8270   -17.2170     0.4050 ho         1 W4X       0.478000
     42 O22         10.7170   -18.3000     1.9480 oh         1 W4X      -0.564100
@<TRIPOS>BOND
     1     1    15 ar  
     2     1    16 ar  
     3     1    23 1   
     4     2     6 1   
     5     2    16 1   
     6     2    18 2   
     7     3    19 ar  
     8     3    20 ar  
     9     3    28 1   
    10     4     5 ar  
    11     4    21 ar  
    12     4    42 1   
    13     5    19 ar  
    14     5    29 1   
    15     6    22 1   
    16     6    27 2   
    17     7     8 ar  
    18     7    12 ar  
    19     7    30 1   
    20     8     9 ar  
    21     8    31 1   
    22     9    10 ar  
    23     9    32 1   
    24    10    11 ar  
    25    10    33 1   
    26    11    12 ar  
    27    11    13 1   
    28    12    34 1   
    29    13    14 ar  
    30    13    17 ar  
    31    14    15 ar  
    32    14    35 1   
    33    15    36 1   
    34    16    17 ar  
    35    17    37 1   
    36    18    23 1   
    37    18    38 1   
    38    19    23 1   
    39    20    21 ar  
    40    20    39 1   
    41    21    24 1   
    42    22    25 1   
    43    22    26 1   
    44    24    41 1   
    45    40    42 1   
@<TRIPOS>SUBSTRUCTURE
     1 W4X         1 TEMP              0 ****  ****    0 ROOT
