@<TRIPOS>MOLECULE
W4Y
   32    33     1     0     0
SMALL
No Charge or Current Charge


@<TRIPOS>ATOM
      1 C10        -44.5400   -29.2880     5.7860 c          1 W4Y       0.611600
      2 N12        -43.3870   -29.6750     5.1600 ns         1 W4Y      -0.406500
      3 C13        -43.1480   -29.9380     3.8310 cs         1 W4Y       0.460400
      4 C17        -46.6760   -29.1810     2.8390 cc         1 W4Y      -0.191000
      5 C01        -45.8810   -25.9330    -0.0940 c3         1 W4Y      -0.107100
      6 C02        -44.5360   -26.6820    -0.0790 c3         1 W4Y       0.176300
      7 C03        -43.4060   -25.8410     0.5570 c3         1 W4Y      -0.107100
      8 C05        -43.6900   -28.8590     0.6700 c3         1 W4Y       0.140600
      9 C08        -45.4660   -29.3880     3.5290 cc         1 W4Y       0.039600
     10 C09        -45.6480   -29.1480     4.8430 cd         1 W4Y      -0.301600
     11 C16        -47.6290   -28.8040     3.7520 cd         1 W4Y      -0.137000
     12 N07        -44.2460   -29.7810     2.9760 n          1 W4Y      -0.188000
     13 N15        -46.9930   -28.7820     5.0080 na         1 W4Y      -0.060000
     14 O04        -44.7450   -27.8750     0.7000 os         1 W4Y      -0.467000
     15 O11        -44.6150   -29.0890     6.9870 o          1 W4Y      -0.528000
     16 S14        -41.6040   -30.3910     3.3640 s          1 W4Y      -0.623400
     17 H121       -42.5950   -29.7830     5.7740 hn         1 W4Y       0.362500
     18 H171       -46.8270   -29.2890     1.7700 ha         1 W4Y       0.153000
     19 H012       -46.6630   -26.5580    -0.5410 hc         1 W4Y       0.043200
     20 H013       -46.1900   -25.6660     0.9240 hc         1 W4Y       0.043200
     21 H011       -45.8030   -25.0130    -0.6840 hc         1 W4Y       0.043200
     22 H021       -44.2650   -26.9350    -1.1130 h1         1 W4Y       0.026700
     23 H033       -42.4300   -26.3200     0.4220 hc         1 W4Y       0.043200
     24 H032       -43.3540   -24.8530     0.0840 hc         1 W4Y       0.043200
     25 H031       -43.5820   -25.6970     1.6300 hc         1 W4Y       0.043200
     26 H051       -43.5070   -29.1930    -0.3600 h1         1 W4Y       0.046700
     27 H052       -42.7520   -28.4570     1.0730 h1         1 W4Y       0.046700
     28 H061       -45.0660   -30.4660     1.1400 h1         1 W4Y       0.082700
     29 H062       -43.3840   -30.8770     1.3790 h1         1 W4Y       0.082700
     30 H161       -48.6760   -28.5520     3.6180 h4         1 W4Y       0.155000
     31 H151       -47.4370   -28.5370     5.8910 hn         1 W4Y       0.372000
     32 C06        -44.1170   -30.0740     1.5230 c3         1 W4Y       0.101000
@<TRIPOS>BOND
     1     1     2 1   
     2     1    10 1   
     3     1    15 2   
     4     2     3 1   
     5     2    17 1   
     6     3    12 1   
     7     3    16 2   
     8     4     9 1   
     9     4    11 2   
    10     4    18 1   
    11     5     6 1   
    12     5    19 1   
    13     5    20 1   
    14     5    21 1   
    15     6     7 1   
    16     6    14 1   
    17     6    22 1   
    18     7    23 1   
    19     7    24 1   
    20     7    25 1   
    21     8    14 1   
    22     8    26 1   
    23     8    27 1   
    24     8    32 1   
    25     9    10 2   
    26     9    12 1   
    27    10    13 1   
    28    11    13 1   
    29    11    30 1   
    30    12    32 1   
    31    13    31 1   
    32    28    32 1   
    33    29    32 1   
@<TRIPOS>SUBSTRUCTURE
     1 W4Y         1 TEMP              0 ****  ****    0 ROOT
