@<TRIPOS>MOLECULE
W4Y
   32    33     1     0     0
SMALL
bcc


@<TRIPOS>ATOM
      1 C10        -44.6930   -29.3260     5.7730 c          1 W4Y       0.754100
      2 N12        -43.4850   -29.6320     5.1540 ns         1 W4Y      -0.540500
      3 C13        -43.2220   -29.8530     3.8330 cs         1 W4Y       0.594400
      4 C17        -46.7470   -29.2500     2.7960 cc         1 W4Y      -0.209000
      5 C01        -45.7920   -25.8860     0.1360 c3         1 W4Y      -0.107100
      6 C02        -44.5210   -26.7030    -0.0020 c3         1 W4Y       0.153100
      7 C03        -43.2800   -25.8460     0.2100 c3         1 W4Y      -0.107100
      8 C05        -43.6370   -28.7640     0.7920 c3         1 W4Y       0.117400
      9 C08        -45.5160   -29.4230     3.4580 cc         1 W4Y       0.039600
     10 C09        -45.7340   -29.2320     4.8100 cd         1 W4Y      -0.250900
     11 C16        -47.6660   -28.9620     3.7840 cd         1 W4Y      -0.104300
     12 N07        -44.2620   -29.7520     2.9790 n          1 W4Y      -0.255000
     13 N15        -47.0540   -28.9510     4.9840 na         1 W4Y      -0.111100
     14 O04        -44.6090   -27.7640     0.9320 os         1 W4Y      -0.420600
     15 O11        -44.7710   -29.1720     6.9780 o          1 W4Y      -0.603500
     16 S14        -41.6600   -30.2380     3.3700 s          1 W4Y      -0.623400
     17 H121       -42.6820   -29.7180     5.7640 hn         1 W4Y       0.362500
     18 H171       -46.9510   -29.2970     1.7400 ha         1 W4Y       0.171000
     19 H012       -46.6780   -26.5060    -0.0070 hc         1 W4Y       0.043200
     20 H013       -45.8540   -25.4240     1.1230 hc         1 W4Y       0.043200
     21 H011       -45.8120   -25.0910    -0.6090 hc         1 W4Y       0.043200
     22 H021       -44.4800   -27.1270    -1.0170 h1         1 W4Y       0.026700
     23 H033       -42.3570   -26.4160     0.0940 hc         1 W4Y       0.043200
     24 H032       -43.2550   -25.0370    -0.5220 hc         1 W4Y       0.043200
     25 H031       -43.2810   -25.3990     1.2060 hc         1 W4Y       0.043200
     26 H051       -43.5030   -29.0520    -0.2600 h1         1 W4Y       0.046700
     27 H052       -42.6580   -28.4430     1.1660 h1         1 W4Y       0.046700
     28 H061       -45.0370   -30.3590     1.1600 h1         1 W4Y       0.082700
     29 H062       -43.3530   -30.7880     1.4220 h1         1 W4Y       0.082700
     30 H161       -48.7210   -28.7600     3.6950 h4         1 W4Y       0.173000
     31 H151       -47.5000   -28.7610     5.8680 hn         1 W4Y       0.321700
     32 C06        -44.0880   -29.9950     1.5490 c3         1 W4Y       0.101000
@<TRIPOS>BOND
     1     1     2 1   
     2     1    10 1   
     3     1    15 2   
     4     2     3 1   
     5     2    17 1   
     6     3    12 1   
     7     3    16 2   
     8     4     9 1   
     9     4    11 2   
    10     4    18 1   
    11     5     6 1   
    12     5    19 1   
    13     5    20 1   
    14     5    21 1   
    15     6     7 1   
    16     6    14 1   
    17     6    22 1   
    18     7    23 1   
    19     7    24 1   
    20     7    25 1   
    21     8    14 1   
    22     8    26 1   
    23     8    27 1   
    24     8    32 1   
    25     9    10 2   
    26     9    12 1   
    27    10    13 1   
    28    11    13 1   
    29    11    30 1   
    30    12    32 1   
    31    13    31 1   
    32    28    32 1   
    33    29    32 1   
@<TRIPOS>SUBSTRUCTURE
     1 W4Y         1 TEMP              0 ****  ****    0 ROOT
