@<TRIPOS>MOLECULE
W4Z
   30    30     1     0     0
SMALL
No Charge or Current Charge


@<TRIPOS>ATOM
      1 C4          21.6150    10.8940    55.1100 c6         1 W4Z       0.123300
      2 C5          20.5900    11.2250    53.9750 c6         1 W4Z       0.146300
      3 C6          19.2280    10.4860    54.1550 c3         1 W4Z       0.111000
      4 C3          22.9090    11.7260    54.8720 c6         1 W4Z       0.097300
      5 C1          21.4610    13.5060    53.7200 c6         1 W4Z       0.396300
      6 C2          22.5700    13.2430    54.7950 c6         1 W4Z       0.099300
      7 N6          18.2330    10.8210    53.1220 ns         1 W4Z      -0.506900
      8 O1          21.9540    13.2470    52.4040 oh         1 W4Z      -0.748000
      9 O2          23.7750    13.9940    54.5300 oh         1 W4Z      -0.730000
     10 O3          23.8750    11.4750    55.9100 oh         1 W4Z      -0.733000
     11 O4          21.9490     9.4890    55.1560 oh         1 W4Z      -0.721000
     12 O5          20.3200    12.6540    53.9550 os         1 W4Z      -0.433000
     13 C           17.2040    11.7200    53.2830 c          1 W4Z       0.604100
     14 O           16.9700    12.2770    54.3460 o          1 W4Z      -0.603100
     15 CH3         16.3640    11.9560    52.0350 c3         1 W4Z      -0.178100
     16 H1          21.1750    11.2090    56.0700 h1         1 W4Z       0.063700
     17 H2          21.0100    10.9240    53.0040 h1         1 W4Z       0.063700
     18 H3          18.8240    10.7200    55.1490 h1         1 W4Z       0.075200
     19 H4          19.4080     9.4030    54.1170 h1         1 W4Z       0.075200
     20 H5          23.3270    11.4180    53.9010 h1         1 W4Z       0.058700
     21 H6          21.1440    14.5590    53.7960 h2         1 W4Z       0.095700
     22 H7          22.1530    13.5460    55.7690 h1         1 W4Z       0.072700
     23 H8          18.3380    10.4140    52.2000 hn         1 W4Z       0.309500
     24 H9          22.8490    13.6590    52.4160 ho         1 W4Z       0.532000
     25 H10         24.4690    13.5410    55.0710 ho         1 W4Z       0.526000
     26 H11         23.8340    10.4990    56.0590 ho         1 W4Z       0.511000
     27 H12         21.3070     9.0470    55.7610 ho         1 W4Z       0.511000
     28 H13         15.5490    12.6680    52.2030 hc         1 W4Z       0.060700
     29 H14         17.0220    12.2780    51.2190 hc         1 W4Z       0.060700
     30 H15         15.9920    10.9930    51.6670 hc         1 W4Z       0.060700
@<TRIPOS>BOND
     1     1     2 1   
     2     1     4 1   
     3     1    11 1   
     4     1    16 1   
     5     2     3 1   
     6     2    12 1   
     7     2    17 1   
     8     3     7 1   
     9     3    18 1   
    10     3    19 1   
    11     4     6 1   
    12     4    10 1   
    13     4    20 1   
    14     5     6 1   
    15     5     8 1   
    16     5    12 1   
    17     5    21 1   
    18     6     9 1   
    19     6    22 1   
    20     7    13 1   
    21     7    23 1   
    22     8    24 1   
    23     9    25 1   
    24    10    26 1   
    25    11    27 1   
    26    13    14 2   
    27    13    15 1   
    28    15    28 1   
    29    15    29 1   
    30    15    30 1   
@<TRIPOS>SUBSTRUCTURE
     1 W4Z         1 TEMP              0 ****  ****    0 ROOT
