@<TRIPOS>MOLECULE
W4Z
   30    30     1     0     0
SMALL
abcg2


@<TRIPOS>ATOM
      1 C4          21.4930    10.8700    55.1110 c6         1 W4Z       0.123300
      2 C5          20.5050    11.2550    54.0120 c6         1 W4Z       0.146300
      3 C6          19.1410    10.6130    54.2150 c3         1 W4Z       0.111000
      4 C3          22.7950    11.6370    54.9090 c6         1 W4Z       0.097300
      5 C1          21.4510    13.4530    53.8090 c6         1 W4Z       0.396300
      6 C2          22.5250    13.1320    54.8500 c6         1 W4Z       0.099300
      7 N6          18.2310    10.8910    53.1220 ns         1 W4Z      -0.506900
      8 O1          21.9320    13.2470    52.4930 oh         1 W4Z      -0.748000
      9 O2          23.6940    13.8600    54.4930 oh         1 W4Z      -0.730000
     10 O3          23.7100    11.4110    55.9850 oh         1 W4Z      -0.733000
     11 O4          21.7090     9.4640    55.0400 oh         1 W4Z      -0.721000
     12 O5          20.3050    12.6750    54.0180 os         1 W4Z      -0.433000
     13 C           17.1810    11.7360    53.2040 c          1 W4Z       0.604100
     14 O           16.8560    12.3030    54.2480 o          1 W4Z      -0.603100
     15 CH3         16.4180    11.9260    51.9110 c3         1 W4Z      -0.178100
     16 H1          21.0690    11.1400    56.0860 h1         1 W4Z       0.063700
     17 H2          20.9140    10.9480    53.0440 h1         1 W4Z       0.063700
     18 H3          18.6910    10.9950    55.1300 h1         1 W4Z       0.075200
     19 H4          19.2750     9.5360    54.3160 h1         1 W4Z       0.075200
     20 H5          23.2470    11.3130    53.9670 h1         1 W4Z       0.058700
     21 H6          21.1150    14.4870    53.9250 h2         1 W4Z       0.095700
     22 H7          22.1530    13.4620    55.8270 h1         1 W4Z       0.072700
     23 H8          18.4390    10.4790    52.2250 hn         1 W4Z       0.309500
     24 H9          22.8840    13.4290    52.5010 ho         1 W4Z       0.532000
     25 H10         24.4250    13.5160    55.0240 ho         1 W4Z       0.526000
     26 H11         24.3070    10.6930    55.7450 ho         1 W4Z       0.511000
     27 H12         22.2570     9.2070    55.7920 ho         1 W4Z       0.511000
     28 H13         15.6000    12.6230    52.0730 hc         1 W4Z       0.060700
     29 H14         17.0780    12.3160    51.1340 hc         1 W4Z       0.060700
     30 H15         16.0180    10.9730    51.5600 hc         1 W4Z       0.060700
@<TRIPOS>BOND
     1     1     2 1   
     2     1     4 1   
     3     1    11 1   
     4     1    16 1   
     5     2     3 1   
     6     2    12 1   
     7     2    17 1   
     8     3     7 1   
     9     3    18 1   
    10     3    19 1   
    11     4     6 1   
    12     4    10 1   
    13     4    20 1   
    14     5     6 1   
    15     5     8 1   
    16     5    12 1   
    17     5    21 1   
    18     6     9 1   
    19     6    22 1   
    20     7    13 1   
    21     7    23 1   
    22     8    24 1   
    23     9    25 1   
    24    10    26 1   
    25    11    27 1   
    26    13    14 2   
    27    13    15 1   
    28    15    28 1   
    29    15    29 1   
    30    15    30 1   
@<TRIPOS>SUBSTRUCTURE
     1 W4Z         1 TEMP              0 ****  ****    0 ROOT
