@<TRIPOS>MOLECULE
W51
   31    33     1     0     0
SMALL
bcc


@<TRIPOS>ATOM
      1 C10        -45.2870   -32.2600     1.4440 c6         1 W51      -0.069900
      2 C13        -45.2730   -29.2820     1.1190 c6         1 W51      -0.089900
      3 C15        -46.6020   -29.4670     5.1970 ca         1 W51      -0.369200
      4 C02        -46.5910   -28.8570     6.4580 ca         1 W51       0.739200
      5 C04        -44.3440   -29.0260     6.4810 ca         1 W51       0.727900
      6 C06        -45.3730   -29.7620     4.5810 ca         1 W51       0.767200
      7 C08        -43.9170   -30.8500     2.9740 c6         1 W51       0.232800
      8 C09        -44.0340   -31.3870     1.5510 c6         1 W51      -0.082700
      9 C11        -46.5350   -31.3740     1.6340 c6         1 W51      -0.089900
     10 C12        -46.0810   -30.0260     2.1870 c6         1 W51       0.242500
     11 C14        -44.1550   -30.2010     0.5940 c6         1 W51      -0.069900
     12 N03        -45.4350   -28.6160     7.0940 nb         1 W51      -0.819000
     13 N05        -44.2420   -29.5680     5.2880 nb         1 W51      -0.826000
     14 N07        -45.2090   -30.2680     3.3410 nh         1 W51      -0.779300
     15 CL16       -48.1410   -29.9590     4.5580 cl         1 W51      -0.115400
     16 H102       -45.3110   -32.7640     0.4760 hc         1 W51       0.044700
     17 H101       -45.2520   -33.0450     2.2030 hc         1 W51       0.044700
     18 H132       -44.8640   -28.3670     1.5520 hc         1 W51       0.050950
     19 H131       -45.9470   -28.9750     0.3170 hc         1 W51       0.050950
     20 H041       -43.4130   -28.8880     7.0220 h5         1 W51       0.043100
     21 H081       -43.6690   -31.6550     3.6710 h1         1 W51       0.055700
     22 H082       -43.1110   -30.1120     3.0360 h1         1 W51       0.055700
     23 H091       -43.1410   -31.9740     1.3300 hc         1 W51       0.061700
     24 H112       -47.0540   -31.2130     0.6860 hc         1 W51       0.050950
     25 H111       -47.2500   -31.8410     2.3130 hc         1 W51       0.050950
     26 H121       -46.9220   -29.4090     2.4820 h1         1 W51       0.076700
     27 H142       -44.3770   -30.5590    -0.4140 hc         1 W51       0.044700
     28 H141       -43.2060   -29.6630     0.5350 hc         1 W51       0.044700
     29 H012       -47.6300   -27.9810     7.9500 hn         1 W51       0.438800
     30 H011       -48.6020   -28.4820     6.6340 hn         1 W51       0.438800
     31 N01        -47.7200   -28.5330     7.1130 nv         1 W51      -0.952500
@<TRIPOS>BOND
     1     1     8 1   
     2     1     9 1   
     3     1    16 1   
     4     1    17 1   
     5     2    10 1   
     6     2    11 1   
     7     2    18 1   
     8     2    19 1   
     9     3     4 ar  
    10     3     6 ar  
    11     3    15 1   
    12     4    12 ar  
    13     4    31 1   
    14     5    12 ar  
    15     5    13 ar  
    16     5    20 1   
    17     6    13 ar  
    18     6    14 1   
    19     7     8 1   
    20     7    14 1   
    21     7    21 1   
    22     7    22 1   
    23     8    11 1   
    24     8    23 1   
    25     9    10 1   
    26     9    24 1   
    27     9    25 1   
    28    10    14 1   
    29    10    26 1   
    30    11    27 1   
    31    11    28 1   
    32    29    31 1   
    33    30    31 1   
@<TRIPOS>SUBSTRUCTURE
     1 W51         1 TEMP              0 ****  ****    0 ROOT
