@<TRIPOS>MOLECULE
W51
   31    33     1     0     0
SMALL
No Charge or Current Charge


@<TRIPOS>ATOM
      1 C10        -45.3590   -32.2460     1.1230 c6         1 W51      -0.069900
      2 C13        -45.1910   -29.2700     1.2410 c6         1 W51      -0.089900
      3 C15        -46.6010   -29.5800     5.3470 ca         1 W51      -0.147000
      4 C02        -46.5420   -28.8140     6.5240 ca         1 W51       0.410900
      5 C04        -44.3230   -28.4250     6.1970 ca         1 W51       0.201900
      6 C06        -45.3930   -29.7110     4.6210 ca         1 W51       0.438900
      7 C08        -44.0800   -31.2570     3.0710 c6         1 W51       0.232800
      8 C09        -44.0400   -31.5250     1.5350 c6         1 W51      -0.082700
      9 C11        -46.5860   -31.3660     1.5250 c6         1 W51      -0.089900
     10 C12        -46.1100   -30.0570     2.2230 c6         1 W51       0.242500
     11 C14        -43.9750   -30.1500     0.8060 c6         1 W51      -0.069900
     12 N03        -45.4180   -28.2310     6.9540 nb         1 W51      -0.293000
     13 N05        -44.2530   -29.1370     5.0570 nb         1 W51      -0.300000
     14 N07        -45.2990   -30.4450     3.4160 nh         1 W51      -0.779300
     15 Cl16       -48.1160   -30.3700     4.8520 cl         1 W51      -0.207000
     16 H102       -45.3670   -32.4380     0.0410 hc         1 W51       0.044700
     17 H101       -45.4220   -33.2260     1.6160 hc         1 W51       0.044700
     18 H132       -44.8370   -28.3490     1.7230 hc         1 W51       0.050950
     19 H131       -45.7660   -28.9580     0.3580 hc         1 W51       0.050950
     20 H041       -43.4010   -27.9600     6.5410 h5         1 W51       0.043100
     21 H081       -44.1000   -32.2160     3.6110 h1         1 W51       0.055700
     22 H082       -43.1550   -30.7350     3.3600 h1         1 W51       0.055700
     23 H091       -43.1670   -32.1400     1.2770 hc         1 W51       0.061700
     24 H112       -47.1820   -31.1200     0.6360 hc         1 W51       0.050950
     25 H111       -47.2480   -31.9280     2.1980 hc         1 W51       0.050950
     26 H121       -46.9780   -29.4380     2.4980 h1         1 W51       0.076700
     27 H142       -43.9810   -30.2950    -0.2830 hc         1 W51       0.044700
     28 H141       -43.0340   -29.6370     1.0480 hc         1 W51       0.044700
     29 H012       -47.5890   -27.8730     8.0180 hn         1 W51       0.494000
     30 H011       -48.5470   -28.8540     6.9540 hn         1 W51       0.494000
     31 N01        -47.6290   -28.6120     7.3190 nv         1 W51      -1.062900
@<TRIPOS>BOND
     1     1     8 1   
     2     1     9 1   
     3     1    16 1   
     4     1    17 1   
     5     2    10 1   
     6     2    11 1   
     7     2    18 1   
     8     2    19 1   
     9     3     4 ar  
    10     3     6 ar  
    11     3    15 1   
    12     4    12 ar  
    13     4    31 1   
    14     5    12 ar  
    15     5    13 ar  
    16     5    20 1   
    17     6    13 ar  
    18     6    14 1   
    19     7     8 1   
    20     7    14 1   
    21     7    21 1   
    22     7    22 1   
    23     8    11 1   
    24     8    23 1   
    25     9    10 1   
    26     9    24 1   
    27     9    25 1   
    28    10    14 1   
    29    10    26 1   
    30    11    27 1   
    31    11    28 1   
    32    29    31 1   
    33    30    31 1   
@<TRIPOS>SUBSTRUCTURE
     1 W51         1 TEMP              0 ****  ****    0 ROOT
