@<TRIPOS>MOLECULE
W52
   41    44     1     0     0
SMALL
abcg2


@<TRIPOS>ATOM
      1 C10          4.4490    26.3310   -39.2390 ca         1 W52      -0.056200
      2 C13          3.2210    24.4840   -38.6990 cc         1 W52      -0.170400
      3 C17          2.0280    28.5450   -37.7950 ca         1 W52      -0.077000
      4 C20          4.1470    29.9200   -36.6500 ca         1 W52      -0.169500
      5 C21          4.3460    28.6550   -37.1770 ca         1 W52      -0.077000
      6 C24          2.6220    23.1580   -38.5910 c          1 W52       0.478300
      7 C01          9.2680    24.3710   -43.0500 ca         1 W52      -0.117000
      8 C02          8.8290    23.3630   -43.8970 ca         1 W52      -0.127000
      9 C03          7.5110    22.9320   -43.8190 ca         1 W52      -0.117000
     10 C04          6.6410    23.5060   -42.9040 ca         1 W52      -0.102500
     11 C05          7.0690    24.5210   -42.0450 cp         1 W52      -0.005000
     12 C06          8.3980    24.9420   -42.1330 ca         1 W52      -0.102500
     13 C07          6.1440    25.1350   -41.0700 cp         1 W52      -0.094000
     14 C08          6.2260    26.5150   -40.7940 ca         1 W52      -0.094000
     15 C09          5.3900    27.1260   -39.8850 ca         1 W52      -0.144000
     16 C11          4.3170    24.9560   -39.5070 ca         1 W52      -0.045800
     17 C12          5.1870    24.3630   -40.4250 ca         1 W52      -0.007000
     18 C14          2.7650    25.5750   -37.9970 cd         1 W52      -0.131100
     19 C16          3.2910    27.9660   -37.7590 ca         1 W52      -0.011200
     20 C18          1.8190    29.7990   -37.2500 ca         1 W52      -0.169500
     21 C19          2.8800    30.5000   -36.6800 ca         1 W52       0.123100
     22 C25          3.2410    22.0160   -39.3880 c          1 W52       0.662000
     23 N15          3.4930    26.6760   -38.3040 na         1 W52      -0.004500
     24 O23          2.6260    31.7220   -36.1800 oh         1 W52      -0.538100
     25 O26          4.1780    21.4290   -38.8220 o          1 W52      -0.704000
     26 O27          2.7320    21.8060   -40.5010 o          1 W52      -0.704000
     27 O28          1.6460    22.9590   -37.8800 o          1 W52      -0.590100
     28 H3           5.3300    28.2050   -37.1250 ha         1 W52       0.133500
     29 H4          10.2950    24.7120   -43.0960 ha         1 W52       0.102500
     30 H5           9.5080    22.9170   -44.6130 ha         1 W52       0.098000
     31 H6           7.1550    22.1510   -44.4780 ha         1 W52       0.102500
     32 H7           5.6110    23.1720   -42.8720 ha         1 W52       0.121000
     33 H8           8.7650    25.7140   -41.4680 ha         1 W52       0.121000
     34 H9           6.9490    27.1220   -41.3240 ha         1 W52       0.097000
     35 H10          5.4650    28.1890   -39.6980 ha         1 W52       0.104000
     36 H11          5.1380    23.3020   -40.6250 ha         1 W52       0.164000
     37 H12          1.9690    25.6340   -37.2720 h4         1 W52       0.220000
     38 H13          0.8330    30.2440   -37.2780 ha         1 W52       0.118000
     39 H14          3.4270    32.1120   -35.8130 ho         1 W52       0.460000
     40 H1           1.2030    28.0180   -38.2570 ha         1 W52       0.133500
     41 H2           4.9810    30.4490   -36.2030 ha         1 W52       0.118000
@<TRIPOS>BOND
     1     1    15 ar  
     2     1    16 ar  
     3     1    23 1   
     4     2     6 1   
     5     2    16 1   
     6     2    18 2   
     7     3    19 ar  
     8     3    20 ar  
     9     3    40 1   
    10     4     5 ar  
    11     4    21 ar  
    12     4    41 1   
    13     5    19 ar  
    14     5    28 1   
    15     6    22 1   
    16     6    27 2   
    17     7     8 ar  
    18     7    12 ar  
    19     7    29 1   
    20     8     9 ar  
    21     8    30 1   
    22     9    10 ar  
    23     9    31 1   
    24    10    11 ar  
    25    10    32 1   
    26    11    12 ar  
    27    11    13 1   
    28    12    33 1   
    29    13    14 ar  
    30    13    17 ar  
    31    14    15 ar  
    32    14    34 1   
    33    15    35 1   
    34    16    17 ar  
    35    17    36 1   
    36    18    23 1   
    37    18    37 1   
    38    19    23 1   
    39    20    21 ar  
    40    20    38 1   
    41    21    24 1   
    42    22    25 1   
    43    22    26 1   
    44    24    39 1   
@<TRIPOS>SUBSTRUCTURE
     1 W52         1 TEMP              0 ****  ****    0 ROOT
