@<TRIPOS>MOLECULE
W52
   41    44     1     0     0
SMALL
No Charge or Current Charge


@<TRIPOS>ATOM
      1 C10          4.0510    26.5030   -39.7060 ca         1 W52      -0.056200
      2 C13          3.1040    24.6560   -38.7980 cc         1 W52      -0.170400
      3 C17          1.9640    28.9300   -38.0230 ca         1 W52      -0.077000
      4 C20          4.1980    29.4010   -36.3800 ca         1 W52      -0.169500
      5 C21          4.1710    28.2770   -37.2270 ca         1 W52      -0.077000
      6 C24          2.7470    23.2660   -38.3840 c          1 W52       0.478300
      7 C01          9.3200    24.4910   -43.0550 ca         1 W52      -0.117000
      8 C02          9.0390    23.2660   -43.6800 ca         1 W52      -0.127000
      9 C03          7.7740    22.6770   -43.5250 ca         1 W52      -0.117000
     10 C04          6.7920    23.3110   -42.7440 ca         1 W52      -0.102500
     11 C05          7.0530    24.5490   -42.1030 cp         1 W52      -0.005000
     12 C06          8.3370    25.1250   -42.2750 ca         1 W52      -0.102500
     13 C07          6.0070    25.2260   -41.2710 cp         1 W52      -0.094000
     14 C08          5.8990    26.6480   -41.2480 ca         1 W52      -0.094000
     15 C09          4.9210    27.2930   -40.4680 ca         1 W52      -0.144000
     16 C11          4.1270    25.1330   -39.7100 ca         1 W52      -0.045800
     17 C12          5.0990    24.4660   -40.4800 ca         1 W52      -0.007000
     18 C14          2.4760    25.7860   -38.2720 cd         1 W52      -0.131100
     19 C16          3.0530    28.0380   -38.0520 ca         1 W52      -0.011200
     20 C18          1.9940    30.0530   -37.1760 ca         1 W52      -0.169500
     21 C19          3.1090    30.2870   -36.3570 ca         1 W52       0.123100
     22 C25          3.5470    22.0280   -39.0430 c          1 W52       0.662000
     23 N15          3.0160    26.9280   -38.8940 na         1 W52      -0.004500
     24 O23          3.1280    31.3770   -35.5400 oh         1 W52      -0.538100
     25 O26          4.5270    21.5820   -38.4490 o          1 W52      -0.704000
     26 O27          3.1410    21.5710   -40.1100 o          1 W52      -0.704000
     27 O28          1.8510    23.0670   -37.5550 o          1 W52      -0.590100
     28 H3           5.0160    27.5910   -37.2420 ha         1 W52       0.133500
     29 H4          10.3000    24.9480   -43.1710 ha         1 W52       0.102500
     30 H5           9.7980    22.7750   -44.2840 ha         1 W52       0.098000
     31 H6           7.5530    21.7290   -44.0120 ha         1 W52       0.102500
     32 H7           5.8150    22.8440   -42.6490 ha         1 W52       0.121000
     33 H8           8.5800    26.0670   -41.7890 ha         1 W52       0.121000
     34 H9           6.5690    27.2530   -41.8520 ha         1 W52       0.097000
     35 H10          4.8400    28.3780   -40.4610 ha         1 W52       0.104000
     36 H11          5.1800    23.3860   -40.4660 ha         1 W52       0.164000
     37 H12          1.7080    25.8550   -37.5070 h4         1 W52       0.220000
     38 H13          1.1520    30.7400   -37.1560 ha         1 W52       0.118000
     39 H14          3.9750    31.3810   -35.0460 ho         1 W52       0.460000
     40 H1           1.0980    28.7530   -38.6580 ha         1 W52       0.133500
     41 H2           5.0660    29.5750   -35.7490 ha         1 W52       0.118000
@<TRIPOS>BOND
     1     1    15 ar  
     2     1    16 ar  
     3     1    23 1   
     4     2     6 1   
     5     2    16 1   
     6     2    18 2   
     7     3    19 ar  
     8     3    20 ar  
     9     3    40 1   
    10     4     5 ar  
    11     4    21 ar  
    12     4    41 1   
    13     5    19 ar  
    14     5    28 1   
    15     6    22 1   
    16     6    27 2   
    17     7     8 ar  
    18     7    12 ar  
    19     7    29 1   
    20     8     9 ar  
    21     8    30 1   
    22     9    10 ar  
    23     9    31 1   
    24    10    11 ar  
    25    10    32 1   
    26    11    12 ar  
    27    11    13 1   
    28    12    33 1   
    29    13    14 ar  
    30    13    17 ar  
    31    14    15 ar  
    32    14    34 1   
    33    15    35 1   
    34    16    17 ar  
    35    17    36 1   
    36    18    23 1   
    37    18    37 1   
    38    19    23 1   
    39    20    21 ar  
    40    20    38 1   
    41    21    24 1   
    42    22    25 1   
    43    22    26 1   
    44    24    39 1   
@<TRIPOS>SUBSTRUCTURE
     1 W52         1 TEMP              0 ****  ****    0 ROOT
