@<TRIPOS>MOLECULE
W53
   58    61     1     0     0
SMALL
abcg2


@<TRIPOS>ATOM
      1 C8         -26.5730     5.0030    -8.7740 c3         1 W53      -0.126200
      2 N7         -23.6770    -1.1970    -5.7850 nv         1 W53      -1.070400
      3 C5         -27.2220     5.3230    -5.0770 ca         1 W53      -0.034500
      4 C6         -27.0560     5.6640    -6.3910 ca         1 W53      -0.195000
      5 N6         -23.6340     0.8900    -6.7220 nb         1 W53      -0.197500
      6 N1         -26.8840     1.6890    -5.4660 nb         1 W53      -0.197500
      7 C2         -27.1490     3.9710    -4.7070 ca         1 W53      -0.186000
      8 N3         -24.8040     7.7650   -10.4150 ns         1 W53      -0.510900
      9 C4         -27.1520     2.1740    -3.1200 ca         1 W53      -0.223500
     10 N          -26.9010    -0.0530    -3.9830 nv         1 W53      -1.070400
     11 C          -26.9640     1.2790    -4.2200 ca         1 W53       0.366400
     12 C1         -26.9520     3.0080    -5.7240 ca         1 W53       0.125500
     13 C14        -24.0000     4.9950    -8.9600 c3         1 W53      -0.126200
     14 C15        -23.7930     4.2480    -7.6730 ca         1 W53       0.129800
     15 C16        -23.6410     2.2300    -6.5900 ca         1 W53       0.125500
     16 C17        -23.5770     2.8670    -5.3290 ca         1 W53      -0.186000
     17 C18        -23.5140     2.0430    -4.1790 ca         1 W53      -0.019000
     18 C19        -23.5280     0.6950    -4.3190 ca         1 W53      -0.223500
     19 C20        -23.6000     0.1460    -5.6380 ca         1 W53       0.366400
     20 C21        -23.5940     4.2680    -5.2910 ca         1 W53      -0.034500
     21 C22        -23.6950     4.9660    -6.4630 ca         1 W53      -0.195000
     22 C3         -27.2500     3.5030    -3.3740 ca         1 W53      -0.019000
     23 C7         -26.8170     4.6400    -7.3350 ca         1 W53       0.129800
     24 C9         -25.2950     5.8340    -8.9820 c3         1 W53      -0.129700
     25 N2         -26.8040     3.3670    -7.0150 nb         1 W53      -0.116500
     26 N5         -23.7370     2.9380    -7.7340 nb         1 W53      -0.116500
     27 O          -25.8360     5.9830   -11.3060 o          1 W53      -0.596100
     28 C10        -25.3510     6.5390   -10.3290 c          1 W53       0.599100
     29 C11        -24.2980     8.5950    -9.3390 c3         1 W53       0.107000
     30 C12        -25.3900     9.3670    -8.6040 c3         1 W53      -0.104400
     31 C13        -24.8590    10.1840    -7.4350 c3         1 W53       0.153800
     32 N4         -23.9520    11.2380    -7.8710 n8         1 W53      -0.998200
     33 H8         -26.5370     4.0930    -9.3730 hc         1 W53       0.076700
     34 H7         -27.4290     5.5850    -9.1260 hc         1 W53       0.076700
     35 H24        -23.5430    -1.5790    -6.7060 hn         1 W53       0.482500
     36 H25        -23.4190    -1.7950    -5.0190 hn         1 W53       0.482500
     37 H5         -27.3970     6.0790    -4.3210 ha         1 W53       0.112000
     38 H6         -27.0960     6.6980    -6.7100 ha         1 W53       0.116000
     39 H10        -24.8600     8.1970   -11.3260 hn         1 W53       0.317500
     40 H4         -27.2150     1.7850    -2.1120 ha         1 W53       0.116500
     41 H1         -26.5410    -0.6390    -4.7180 hn         1 W53       0.482500
     42 H          -26.7150    -0.3730    -3.0480 hn         1 W53       0.482500
     43 H19        -24.0150     4.2800    -9.7840 hc         1 W53       0.076700
     44 H20        -23.1490     5.6640    -9.1260 hc         1 W53       0.076700
     45 H21        -23.4640     2.4970    -3.1970 ha         1 W53       0.114000
     46 H22        -23.4940     0.0350    -3.4620 ha         1 W53       0.116500
     47 H26        -23.5350     4.7820    -4.3390 ha         1 W53       0.112000
     48 H27        -23.7220     6.0480    -6.4680 ha         1 W53       0.116000
     49 H3         -27.3960     4.2110    -2.5670 ha         1 W53       0.114000
     50 H9         -25.2320     6.5740    -8.1820 hc         1 W53       0.052700
     51 H12        -23.7210     7.9900    -8.6360 h1         1 W53       0.048700
     52 H11        -23.5870     9.2870    -9.7910 h1         1 W53       0.048700
     53 H14        -25.9040    10.0260    -9.3100 hc         1 W53       0.054700
     54 H13        -26.1370     8.6640    -8.2240 hc         1 W53       0.054700
     55 H15        -25.7080    10.6560    -6.9360 h1         1 W53       0.028200
     56 H16        -24.4140     9.4990    -6.6980 h1         1 W53       0.028200
     57 H17        -23.7760    11.8680    -7.0990 hn         1 W53       0.393500
     58 H18        -23.0490    10.8460    -8.1050 hn         1 W53       0.393500
@<TRIPOS>BOND
     1     1    23 1   
     2     1    24 1   
     3     1    33 1   
     4     1    34 1   
     5     2    19 1   
     6     2    35 1   
     7     2    36 1   
     8     3     4 ar  
     9     3     7 ar  
    10     3    37 1   
    11     4    23 ar  
    12     4    38 1   
    13     5    15 ar  
    14     5    19 ar  
    15     6    11 ar  
    16     6    12 ar  
    17     7    12 ar  
    18     7    22 ar  
    19     8    28 1   
    20     8    29 1   
    21     8    39 1   
    22     9    11 ar  
    23     9    22 ar  
    24     9    40 1   
    25    10    11 1   
    26    10    41 1   
    27    10    42 1   
    28    12    25 ar  
    29    13    14 1   
    30    13    24 1   
    31    13    43 1   
    32    13    44 1   
    33    14    21 ar  
    34    14    26 ar  
    35    15    16 ar  
    36    15    26 ar  
    37    16    17 ar  
    38    16    20 ar  
    39    17    18 ar  
    40    17    45 1   
    41    18    19 ar  
    42    18    46 1   
    43    20    21 ar  
    44    20    47 1   
    45    21    48 1   
    46    22    49 1   
    47    23    25 ar  
    48    24    28 1   
    49    24    50 1   
    50    27    28 2   
    51    29    30 1   
    52    29    51 1   
    53    29    52 1   
    54    30    31 1   
    55    30    53 1   
    56    30    54 1   
    57    31    32 1   
    58    31    55 1   
    59    31    56 1   
    60    32    57 1   
    61    32    58 1   
@<TRIPOS>SUBSTRUCTURE
     1 W53         1 TEMP              0 ****  ****    0 ROOT
