@<TRIPOS>MOLECULE
W53
   58    61     1     0     0
SMALL
No Charge or Current Charge


@<TRIPOS>ATOM
      1 C8         -26.3380     5.3130    -8.7050 c3         1 W53      -0.126200
      2 N7         -24.1220    -1.3840    -5.5250 nv         1 W53      -1.070400
      3 C5         -26.5080     5.3890    -4.8860 ca         1 W53      -0.034500
      4 C6         -26.3860     5.8320    -6.2080 ca         1 W53      -0.195000
      5 N6         -23.9530     0.6410    -6.5780 nb         1 W53      -0.197500
      6 N1         -27.1720     1.8240    -5.5290 nb         1 W53      -0.197500
      7 C2         -26.7690     4.0280    -4.6560 ca         1 W53      -0.186000
      8 N3         -24.5690     7.9150   -10.4900 ns         1 W53      -0.510900
      9 C4         -27.1260     2.1870    -3.1430 ca         1 W53      -0.223500
     10 N          -27.5130     0.0400    -4.1350 nv         1 W53      -1.070400
     11 C          -27.2650     1.3730    -4.2680 ca         1 W53       0.366400
     12 C1         -26.9220     3.1340    -5.7550 ca         1 W53       0.125500
     13 C14        -23.8090     4.7320    -9.0590 c3         1 W53      -0.126200
     14 C15        -23.6070     4.0140    -7.7270 ca         1 W53       0.129800
     15 C16        -23.7240     1.9740    -6.5790 ca         1 W53       0.125500
     16 C17        -23.3980     2.6390    -5.3610 ca         1 W53      -0.186000
     17 C18        -23.3280     1.9140    -4.1580 ca         1 W53      -0.019000
     18 C19        -23.5780     0.5370    -4.1970 ca         1 W53      -0.223500
     19 C20        -23.8830    -0.0460    -5.4280 ca         1 W53       0.366400
     20 C21        -23.1520     4.0230    -5.3580 ca         1 W53      -0.034500
     21 C22        -23.2530     4.7210    -6.5660 ca         1 W53      -0.195000
     22 C3         -26.8720     3.5500    -3.3380 ca         1 W53      -0.019000
     23 C7         -26.5260     4.8980    -7.2480 ca         1 W53       0.129800
     24 C9         -24.9070     5.8420    -9.0480 c3         1 W53      -0.129700
     25 N2         -26.8060     3.5970    -7.0210 nb         1 W53      -0.116500
     26 N5         -23.8160     2.6800    -7.7280 nb         1 W53      -0.116500
     27 O          -25.2050     5.9980   -11.4520 o          1 W53      -0.596100
     28 C10        -24.9230     6.5820   -10.4170 c          1 W53       0.599100
     29 C11        -24.3960     8.8640    -9.3820 c3         1 W53       0.107000
     30 C12        -25.7380     9.2650    -8.7290 c3         1 W53      -0.104400
     31 C13        -25.5870    10.1860    -7.5010 c3         1 W53       0.153800
     32 N4         -25.0380    11.5080    -7.8580 n8         1 W53      -0.998200
     33 H8         -26.5820     4.4820    -9.3800 hc         1 W53       0.076700
     34 H7         -27.0680     6.0990    -8.9340 hc         1 W53       0.076700
     35 H24        -24.1370    -1.8080    -6.4500 hn         1 W53       0.482500
     36 H25        -23.8700    -1.9910    -4.7490 hn         1 W53       0.482500
     37 H5         -26.3900     6.0870    -4.0590 ha         1 W53       0.112000
     38 H6         -26.1690     6.8750    -6.4180 ha         1 W53       0.116000
     39 H10        -24.5570     8.2950   -11.4290 hn         1 W53       0.317500
     40 H4         -27.2110     1.7790    -2.1400 ha         1 W53       0.116500
     41 H1         -27.3240    -0.5530    -4.9400 hn         1 W53       0.482500
     42 H          -27.3670    -0.3910    -3.2260 hn         1 W53       0.482500
     43 H19        -24.0460     4.0070    -9.8490 hc         1 W53       0.076700
     44 H20        -22.8560     5.1880    -9.3550 hc         1 W53       0.076700
     45 H21        -23.0870     2.4060    -3.2170 ha         1 W53       0.114000
     46 H22        -23.5340    -0.0580    -3.2890 ha         1 W53       0.116500
     47 H26        -22.9010     4.5470    -4.4390 ha         1 W53       0.112000
     48 H27        -23.0840     5.7940    -6.5960 ha         1 W53       0.116000
     49 H3         -26.7560     4.2170    -2.4860 ha         1 W53       0.114000
     50 H9         -24.6320     6.5500    -8.2650 hc         1 W53       0.052700
     51 H12        -23.7160     8.4390    -8.6330 h1         1 W53       0.048700
     52 H11        -23.9110     9.7620    -9.7850 h1         1 W53       0.048700
     53 H14        -26.3740     9.7550    -9.4760 hc         1 W53       0.054700
     54 H13        -26.2730     8.3640    -8.4100 hc         1 W53       0.054700
     55 H15        -26.5740    10.3370    -7.0430 h1         1 W53       0.028200
     56 H16        -24.9310     9.7130    -6.7570 h1         1 W53       0.028200
     57 H17        -24.9510    12.0750    -7.0050 hn         1 W53       0.393500
     58 H18        -24.0660    11.3960    -8.1710 hn         1 W53       0.393500
@<TRIPOS>BOND
     1     1    23 1   
     2     1    24 1   
     3     1    33 1   
     4     1    34 1   
     5     2    19 1   
     6     2    35 1   
     7     2    36 1   
     8     3     4 ar  
     9     3     7 ar  
    10     3    37 1   
    11     4    23 ar  
    12     4    38 1   
    13     5    15 ar  
    14     5    19 ar  
    15     6    11 ar  
    16     6    12 ar  
    17     7    12 ar  
    18     7    22 ar  
    19     8    28 1   
    20     8    29 1   
    21     8    39 1   
    22     9    11 ar  
    23     9    22 ar  
    24     9    40 1   
    25    10    11 1   
    26    10    41 1   
    27    10    42 1   
    28    12    25 ar  
    29    13    14 1   
    30    13    24 1   
    31    13    43 1   
    32    13    44 1   
    33    14    21 ar  
    34    14    26 ar  
    35    15    16 ar  
    36    15    26 ar  
    37    16    17 ar  
    38    16    20 ar  
    39    17    18 ar  
    40    17    45 1   
    41    18    19 ar  
    42    18    46 1   
    43    20    21 ar  
    44    20    47 1   
    45    21    48 1   
    46    22    49 1   
    47    23    25 ar  
    48    24    28 1   
    49    24    50 1   
    50    27    28 2   
    51    29    30 1   
    52    29    51 1   
    53    29    52 1   
    54    30    31 1   
    55    30    53 1   
    56    30    54 1   
    57    31    32 1   
    58    31    55 1   
    59    31    56 1   
    60    32    57 1   
    61    32    58 1   
@<TRIPOS>SUBSTRUCTURE
     1 W53         1 TEMP              0 ****  ****    0 ROOT
