@<TRIPOS>MOLECULE
W54
   45    47     1     0     0
SMALL
No Charge or Current Charge


@<TRIPOS>ATOM
      1 C31          1.1410    -0.4670    10.0250 c3         1 W54      -0.133400
      2 C3           0.3540    -0.1800     8.7800 cc         1 W54       0.278300
      3 C4           0.8970     0.5090     7.6850 cc         1 W54      -0.251000
      4 C5          -0.1050     0.5660     6.7760 cd         1 W54       0.185300
      5 O1          -1.2180    -0.0540     7.2810 os         1 W54      -0.076700
      6 N2          -0.9050    -0.5430     8.6020 nd         1 W54      -0.365300
      7 C1C         -0.1480     1.1770     5.4020 c3         1 W54      -0.116700
      8 C2C         -0.0770     0.1180     4.2800 c3         1 W54      -0.073400
      9 C3C         -0.1110     0.7340     2.8640 c3         1 W54      -0.074400
     10 C4C         -0.0390    -0.3250     1.7420 c3         1 W54      -0.081400
     11 C5C         -0.0730     0.2910     0.3320 c3         1 W54       0.168600
     12 O1B          0.0010    -0.7850    -0.6140 os         1 W54      -0.350100
     13 C1B         -0.0150    -0.4910    -1.9600 ca         1 W54       0.143100
     14 C2B          1.1970    -0.3490    -2.6650 ca         1 W54       0.084000
     15 Cl1          2.7470    -0.5390    -1.8420 cl         1 W54      -0.171500
     16 C3B          1.1850    -0.0510    -4.0380 ca         1 W54      -0.052000
     17 C4B         -0.0370     0.1080    -4.7300 ca         1 W54      -0.119900
     18 C5B         -1.2480    -0.0410    -4.0160 ca         1 W54      -0.052000
     19 C6B         -1.2390    -0.3390    -2.6430 ca         1 W54       0.084000
     20 Cl2         -2.7780    -0.5270    -1.7980 cl         1 W54      -0.171500
     21 C2A         -0.0460     0.4270    -6.1930 ce         1 W54       0.635200
     22 N3A         -1.1230     0.5990    -6.8940 n2         1 W54      -0.633900
     23 C4A         -0.6610     1.0150    -8.2410 c5         1 W54       0.070800
     24 C5A          0.8170     0.5730    -8.2440 c5         1 W54       0.116600
     25 O1A          1.1560     0.5900    -6.8480 os         1 W54      -0.453600
     26 H311         1.4700     0.4650    10.4980 hc         1 W54       0.055700
     27 H312         0.5420    -1.0250    10.7550 hc         1 W54       0.055700
     28 H313         2.0310    -1.0630     9.7910 hc         1 W54       0.055700
     29 H4           1.9030     0.9020     7.6010 ha         1 W54       0.151000
     30 H1C1        -1.0700     1.7610     5.2910 hc         1 W54       0.063200
     31 H1C2         0.6840     1.8820     5.2880 hc         1 W54       0.063200
     32 H2C1         0.8440    -0.4680     4.3980 hc         1 W54       0.054200
     33 H2C2        -0.9150    -0.5810     4.3900 hc         1 W54       0.054200
     34 H3C1        -1.0320     1.3190     2.7480 hc         1 W54       0.040200
     35 H3C2         0.7290     1.4320     2.7540 hc         1 W54       0.040200
     36 H4C1         0.8830    -0.9100     1.8540 hc         1 W54       0.059700
     37 H4C2        -0.8800    -1.0220     1.8470 hc         1 W54       0.059700
     38 H5C1        -1.0010     0.8620     0.2000 h1         1 W54       0.037700
     39 H5C2         0.7770     0.9750     0.2060 h1         1 W54       0.037700
     40 H3B          2.1320     0.0560    -4.5620 ha         1 W54       0.154000
     41 H5B         -2.2040     0.0720    -4.5230 ha         1 W54       0.154000
     42 H4A1        -1.2370     0.5250    -9.0380 h1         1 W54       0.073200
     43 H4A2        -0.7550     2.1030    -8.3640 h1         1 W54       0.073200
     44 H5A1         0.9260    -0.4530    -8.6230 h1         1 W54       0.065200
     45 H5A2         1.4760     1.2420    -8.8140 h1         1 W54       0.065200
@<TRIPOS>BOND
     1     1     2 1   
     2     1    26 1   
     3     1    27 1   
     4     1    28 1   
     5     2     3 1   
     6     2     6 2   
     7     3     4 2   
     8     3    29 1   
     9     4     5 1   
    10     4     7 1   
    11     5     6 1   
    12     7     8 1   
    13     7    30 1   
    14     7    31 1   
    15     8     9 1   
    16     8    32 1   
    17     8    33 1   
    18     9    10 1   
    19     9    34 1   
    20     9    35 1   
    21    10    11 1   
    22    10    36 1   
    23    10    37 1   
    24    11    12 1   
    25    11    38 1   
    26    11    39 1   
    27    12    13 1   
    28    13    14 ar  
    29    13    19 ar  
    30    14    15 1   
    31    14    16 ar  
    32    16    17 ar  
    33    16    40 1   
    34    17    18 ar  
    35    17    21 1   
    36    18    19 ar  
    37    18    41 1   
    38    19    20 1   
    39    21    22 2   
    40    21    25 1   
    41    22    23 1   
    42    23    24 1   
    43    23    42 1   
    44    23    43 1   
    45    24    25 1   
    46    24    44 1   
    47    24    45 1   
@<TRIPOS>SUBSTRUCTURE
     1 W54         1 TEMP              0 ****  ****    0 ROOT
