@<TRIPOS>MOLECULE
W54
   45    47     1     0     0
SMALL
abcg2


@<TRIPOS>ATOM
      1 C31          1.1640    -0.3230     9.9970 c3         1 W54      -0.133400
      2 C3           0.5260    -0.0930     8.6740 cc         1 W54       0.278300
      3 C4           1.0120     0.6950     7.5970 cc         1 W54      -0.251000
      4 C5           0.0600     0.5720     6.6430 cd         1 W54       0.185300
      5 O1          -0.9130    -0.2220     7.1010 os         1 W54      -0.076700
      6 N2          -0.6180    -0.6350     8.3700 nd         1 W54      -0.365300
      7 C1C         -0.0700     1.1150     5.2680 c3         1 W54      -0.116700
      8 C2C         -0.0690     0.0340     4.1850 c3         1 W54      -0.073400
      9 C3C         -0.1480     0.6340     2.7870 c3         1 W54      -0.074400
     10 C4C         -0.1710    -0.4360     1.7040 c3         1 W54      -0.081400
     11 C5C         -0.2180     0.1720     0.3200 c3         1 W54       0.168600
     12 O1B         -0.2940    -0.9010    -0.6330 os         1 W54      -0.350100
     13 C1B         -0.2230    -0.5420    -1.9230 ca         1 W54       0.143100
     14 C2B          1.0010    -0.4650    -2.5820 ca         1 W54       0.084000
     15 CL1          2.4360    -0.8080    -1.6910 cl         1 W54      -0.171500
     16 C3B          1.0850    -0.1480    -3.9270 ca         1 W54      -0.052000
     17 C4B         -0.0790     0.1170    -4.6390 ca         1 W54      -0.119900
     18 C5B         -1.3150     0.0600    -4.0010 ca         1 W54      -0.052000
     19 C6B         -1.3740    -0.2590    -2.6600 ca         1 W54       0.084000
     20 CL2         -2.9010    -0.3510    -1.8650 cl         1 W54      -0.171500
     21 C2A         -0.0320     0.4470    -6.0690 ce         1 W54       0.635200
     22 N3A         -1.0370     0.6990    -6.7930 n2         1 W54      -0.633900
     23 C4A         -0.5370     0.9690    -8.1330 c5         1 W54       0.070800
     24 C5A          0.9880     0.7860    -8.0230 c5         1 W54       0.116600
     25 O1A          1.1850     0.4740    -6.6320 os         1 W54      -0.453600
     26 H311         1.3030     0.6220    10.5240 hc         1 W54       0.055700
     27 H312         0.5590    -0.9800    10.6190 hc         1 W54       0.055700
     28 H313         2.1490    -0.7730     9.8750 hc         1 W54       0.055700
     29 H4           1.9270     1.2630     7.5530 ha         1 W54       0.151000
     30 H1C1        -0.9870     1.7080     5.1940 hc         1 W54       0.063200
     31 H1C2         0.7600     1.8040     5.1050 hc         1 W54       0.063200
     32 H2C1         0.8380    -0.5700     4.2730 hc         1 W54       0.054200
     33 H2C2        -0.9120    -0.6450     4.3370 hc         1 W54       0.054200
     34 H3C1        -1.0450     1.2580     2.7080 hc         1 W54       0.040200
     35 H3C2         0.7050     1.3030     2.6320 hc         1 W54       0.040200
     36 H4C1         0.7180    -1.0680     1.7900 hc         1 W54       0.059700
     37 H4C2        -1.0400    -1.0850     1.8450 hc         1 W54       0.059700
     38 H5C1        -1.0890     0.8260     0.2110 h1         1 W54       0.037700
     39 H5C2         0.6780     0.7730     0.1330 h1         1 W54       0.037700
     40 H3B          2.0550    -0.1050    -4.4020 ha         1 W54       0.154000
     41 H5B         -2.2220     0.2650    -4.5530 ha         1 W54       0.154000
     42 H4A1        -0.9870     0.2810    -8.8500 h1         1 W54       0.073200
     43 H4A2        -0.8140     1.9790    -8.4410 h1         1 W54       0.073200
     44 H5A1         1.3670    -0.0400    -8.6230 h1         1 W54       0.065200
     45 H5A2         1.5530     1.6870    -8.2630 h1         1 W54       0.065200
@<TRIPOS>BOND
     1     1     2 1   
     2     1    26 1   
     3     1    27 1   
     4     1    28 1   
     5     2     3 1   
     6     2     6 2   
     7     3     4 2   
     8     3    29 1   
     9     4     5 1   
    10     4     7 1   
    11     5     6 1   
    12     7     8 1   
    13     7    30 1   
    14     7    31 1   
    15     8     9 1   
    16     8    32 1   
    17     8    33 1   
    18     9    10 1   
    19     9    34 1   
    20     9    35 1   
    21    10    11 1   
    22    10    36 1   
    23    10    37 1   
    24    11    12 1   
    25    11    38 1   
    26    11    39 1   
    27    12    13 1   
    28    13    14 ar  
    29    13    19 ar  
    30    14    15 1   
    31    14    16 ar  
    32    16    17 ar  
    33    16    40 1   
    34    17    18 ar  
    35    17    21 1   
    36    18    19 ar  
    37    18    41 1   
    38    19    20 1   
    39    21    22 2   
    40    21    25 1   
    41    22    23 1   
    42    23    24 1   
    43    23    42 1   
    44    23    43 1   
    45    24    25 1   
    46    24    44 1   
    47    24    45 1   
@<TRIPOS>SUBSTRUCTURE
     1 W54         1 TEMP              0 ****  ****    0 ROOT
