@<TRIPOS>MOLECULE
W55
   20    21     1     0     0
SMALL
abcg2


@<TRIPOS>ATOM
      1 C7          -0.8200    14.4480   -36.2920 ce         1 W55      -0.169400
      2 C8           0.5000    13.7700   -36.0620 c6         1 W55       0.201800
      3 C9          -2.0360    13.9160   -35.5620 c          1 W55       0.706200
      4 O1          -1.8450    12.8830   -34.8640 o          1 W55      -0.719500
      5 C1           2.6830    16.7410   -39.0970 ca         1 W55      -0.109000
      6 C5           0.2810    16.7440   -38.9930 ca         1 W55      -0.088000
      7 C6          -0.8820    15.4330   -37.1970 cf         1 W55      -0.198200
      8 C4           0.3090    15.8700   -37.9040 ca         1 W55      -0.087800
      9 C3           1.5560    15.4310   -37.4270 ca         1 W55       0.139100
     10 C2           2.7370    15.8710   -38.0110 ca         1 W55      -0.155000
     11 O2          -3.1260    14.5200   -35.7170 o          1 W55      -0.719500
     12 C            1.4570    17.1750   -39.5950 ca         1 W55      -0.157000
     13 O            1.6320    14.6300   -36.3270 os         1 W55      -0.377100
     14 H1           0.5910    12.8740   -36.6920 h1         1 W55       0.064200
     15 H2           0.6080    13.4610   -35.0260 h1         1 W55       0.064200
     16 H4           3.6050    17.0760   -39.5560 ha         1 W55       0.093000
     17 H5          -0.6790    17.0900   -39.3590 ha         1 W55       0.107000
     18 H6          -1.8270    15.9160   -37.4110 ha         1 W55       0.201000
     19 H7           3.6840    15.5310   -37.6120 ha         1 W55       0.111000
     20 H8           1.4200    17.8490   -40.4410 ha         1 W55       0.095000
@<TRIPOS>BOND
     1     1     2 1   
     2     1     3 1   
     3     1     7 2   
     4     2    13 1   
     5     2    14 1   
     6     2    15 1   
     7     3     4 1   
     8     3    11 1   
     9     5    10 ar  
    10     5    12 ar  
    11     5    16 1   
    12     6     8 ar  
    13     6    12 ar  
    14     6    17 1   
    15     7     8 1   
    16     7    18 1   
    17     8     9 ar  
    18     9    10 ar  
    19     9    13 1   
    20    10    19 1   
    21    12    20 1   
@<TRIPOS>SUBSTRUCTURE
     1 W55         1 TEMP              0 ****  ****    0 ROOT
