@<TRIPOS>MOLECULE
W55
   20    21     1     0     0
SMALL
No Charge or Current Charge


@<TRIPOS>ATOM
      1 C7          -0.8480    14.4060   -36.3000 ce         1 W55      -0.169400
      2 C8           0.5020    13.7350   -36.0060 c6         1 W55       0.201800
      3 C9          -2.0540    13.9040   -35.5510 c          1 W55       0.706200
      4 O1          -1.9130    12.9840   -34.7580 o          1 W55      -0.719500
      5 C1           2.7060    16.7740   -39.1240 ca         1 W55      -0.109000
      6 C5           0.2710    16.7840   -38.9860 ca         1 W55      -0.088000
      7 C6          -0.8710    15.3980   -37.2330 cf         1 W55      -0.198200
      8 C4           0.3300    15.8720   -37.9170 ca         1 W55      -0.087800
      9 C3           1.5790    15.4080   -37.4540 ca         1 W55       0.139100
     10 C2           2.7640    15.8690   -38.0490 ca         1 W55      -0.155000
     11 O2          -3.1360    14.4280   -35.7700 o          1 W55      -0.719500
     12 C            1.4600    17.2290   -39.5910 ca         1 W55      -0.157000
     13 O            1.6530    14.5470   -36.3740 os         1 W55      -0.377100
     14 H1           0.5530    12.7940   -36.5720 h1         1 W55       0.064200
     15 H2           0.5890    13.4800   -34.9400 h1         1 W55       0.064200
     16 H4           3.6240    17.1270   -39.5890 ha         1 W55       0.093000
     17 H5          -0.6890    17.1480   -39.3450 ha         1 W55       0.107000
     18 H6          -1.8150    15.8870   -37.4880 ha         1 W55       0.201000
     19 H7           3.7260    15.5230   -37.6800 ha         1 W55       0.111000
     20 H8           1.4160    17.9330   -40.4190 ha         1 W55       0.095000
@<TRIPOS>BOND
     1     1     2 1   
     2     1     3 1   
     3     1     7 2   
     4     2    13 1   
     5     2    14 1   
     6     2    15 1   
     7     3     4 1   
     8     3    11 1   
     9     5    10 ar  
    10     5    12 ar  
    11     5    16 1   
    12     6     8 ar  
    13     6    12 ar  
    14     6    17 1   
    15     7     8 1   
    16     7    18 1   
    17     8     9 ar  
    18     9    10 ar  
    19     9    13 1   
    20    10    19 1   
    21    12    20 1   
@<TRIPOS>SUBSTRUCTURE
     1 W55         1 TEMP              0 ****  ****    0 ROOT
