@<TRIPOS>MOLECULE
W56
   48    50     1     0     0
SMALL
bcc


@<TRIPOS>ATOM
      1 O1          -0.3630    -0.9270    -7.1400 os         1 W56      -0.122100
      2 N2          -0.7860    -0.6720    -8.4150 nc         1 W56      -0.365300
      3 C3          -0.2340     0.4530    -8.7660 cd         1 W56       0.344600
      4 C31         -0.4710     1.0450   -10.1090 c3         1 W56      -0.133400
      5 C4           0.5720     0.9680    -7.7160 cd         1 W56      -0.398600
      6 C5           0.4480     0.0530    -6.7260 cc         1 W56       0.294000
      7 C1C          1.0060    -0.0350    -5.3540 c3         1 W56      -0.116700
      8 C2C         -0.0610    -0.0000    -4.2580 c3         1 W56      -0.072400
      9 C3C          0.5560    -0.0660    -2.8670 c3         1 W56      -0.075400
     10 C4C         -0.4970    -0.0270    -1.7680 c3         1 W56      -0.082400
     11 C5C          0.1300    -0.1120    -0.3920 c3         1 W56       0.142400
     12 O1B         -0.9140    -0.0450     0.5710 os         1 W56      -0.323900
     13 C1B         -0.6140    -0.0840     1.8750 ca         1 W56       0.171100
     14 C2B         -1.6890     0.0170     2.7620 ca         1 W56      -0.209500
     15 C3B         -1.4770    -0.0130     4.1250 ca         1 W56      -0.044500
     16 C4B         -0.1860    -0.1450     4.6430 ca         1 W56      -0.176900
     17 C5B          0.8800    -0.2450     3.7530 ca         1 W56      -0.044500
     18 C6B          0.6800    -0.2170     2.3840 ca         1 W56      -0.209500
     19 C2A          0.0650    -0.1760     6.0840 ce         1 W56       0.650200
     20 N3A          1.1970    -0.3100     6.6390 n2         1 W56      -0.651900
     21 C4A          0.9880    -0.2360     8.0810 c5         1 W56       0.089500
     22 CM1          1.7120     0.9610     8.6780 c3         1 W56      -0.084100
     23 C5A         -0.5460    -0.1610     8.2280 c5         1 W56       0.092400
     24 O1A         -1.0140    -0.0480     6.8770 os         1 W56      -0.432400
     25 H311        -0.9060     2.0410   -10.0180 hc         1 W56       0.055700
     26 H312         0.4690     1.1500   -10.6520 hc         1 W56       0.055700
     27 H313        -1.1440     0.4270   -10.7000 hc         1 W56       0.055700
     28 H4           1.1490     1.8770    -7.7090 ha         1 W56       0.169000
     29 H1C1         1.6990     0.7970    -5.2240 hc         1 W56       0.062700
     30 H1C2         1.5980    -0.9510    -5.2610 hc         1 W56       0.062700
     31 H2C1        -0.7550    -0.8350    -4.3860 hc         1 W56       0.054200
     32 H2C2        -0.6520     0.9150    -4.3550 hc         1 W56       0.054200
     33 H3C1         1.2540     0.7670    -2.7380 hc         1 W56       0.040200
     34 H3C2         1.1520    -0.9810    -2.7780 hc         1 W56       0.040200
     35 H4C1        -1.1980    -0.8560    -1.9000 hc         1 W56       0.058700
     36 H4C2        -1.0770     0.8980    -1.8470 hc         1 W56       0.058700
     37 H5C1         0.8380     0.7110    -0.2410 h1         1 W56       0.036700
     38 H5C2         0.6860    -1.0510    -0.2860 h1         1 W56       0.036700
     39 H2B         -2.6930     0.1230     2.3700 ha         1 W56       0.143000
     40 H3B         -2.3300     0.0670     4.7850 ha         1 W56       0.151000
     41 H5B          1.8870    -0.3470     4.1360 ha         1 W56       0.151000
     42 H6B          1.5380    -0.2980     1.7310 ha         1 W56       0.143000
     43 H4A          1.3740    -1.1460     8.5480 h1         1 W56       0.074700
     44 HM11         2.7830     0.9040     8.4850 hc         1 W56       0.042367
     45 HM12         1.3370     1.8960     8.2560 hc         1 W56       0.042367
     46 HM13         1.5670     0.9960     9.7580 hc         1 W56       0.042367
     47 H5A1        -0.9770    -1.0580     8.6750 h1         1 W56       0.061700
     48 H5A2        -0.8850     0.7100     8.7910 h1         1 W56       0.061700
@<TRIPOS>BOND
     1     1     2 1   
     2     1     6 1   
     3     2     3 2   
     4     3     4 1   
     5     3     5 1   
     6     4    25 1   
     7     4    26 1   
     8     4    27 1   
     9     5     6 2   
    10     5    28 1   
    11     6     7 1   
    12     7     8 1   
    13     7    29 1   
    14     7    30 1   
    15     8     9 1   
    16     8    31 1   
    17     8    32 1   
    18     9    10 1   
    19     9    33 1   
    20     9    34 1   
    21    10    11 1   
    22    10    35 1   
    23    10    36 1   
    24    11    12 1   
    25    11    37 1   
    26    11    38 1   
    27    12    13 1   
    28    13    14 ar  
    29    13    18 ar  
    30    14    15 ar  
    31    14    39 1   
    32    15    16 ar  
    33    15    40 1   
    34    16    17 ar  
    35    16    19 1   
    36    17    18 ar  
    37    17    41 1   
    38    18    42 1   
    39    19    20 2   
    40    19    24 1   
    41    20    21 1   
    42    21    22 1   
    43    21    23 1   
    44    21    43 1   
    45    22    44 1   
    46    22    45 1   
    47    22    46 1   
    48    23    24 1   
    49    23    47 1   
    50    23    48 1   
@<TRIPOS>SUBSTRUCTURE
     1 W56         1 TEMP              0 ****  ****    0 ROOT
