@<TRIPOS>MOLECULE
W56
   48    50     1     0     0
SMALL
No Charge or Current Charge


@<TRIPOS>ATOM
      1 O1          -0.3090    -1.1090    -7.3670 os         1 W56      -0.077700
      2 N2          -0.7910    -0.7330    -8.6770 nc         1 W56      -0.365300
      3 C3          -0.3250     0.4900    -8.8580 cd         1 W56       0.279300
      4 C31         -0.6110     1.2440   -10.1240 c3         1 W56      -0.133400
      5 C4           0.4280     0.9450    -7.7640 cd         1 W56      -0.250000
      6 C5           0.4200    -0.0630    -6.8540 cc         1 W56       0.184300
      7 C1C          1.0460    -0.1810    -5.4930 c3         1 W56      -0.116700
      8 C2C          0.0200    -0.0480    -4.3470 c3         1 W56      -0.072400
      9 C3C          0.6610    -0.1600    -2.9460 c3         1 W56      -0.075400
     10 C4C         -0.3650    -0.0270    -1.7990 c3         1 W56      -0.082400
     11 C5C          0.2770    -0.1380    -0.4030 c3         1 W56       0.165600
     12 O1B         -0.7720     0.0010     0.5710 os         1 W56      -0.347100
     13 C1B         -0.5260    -0.0530     1.9270 ca         1 W56       0.171100
     14 C2B         -1.6160     0.0940     2.7960 ca         1 W56      -0.191500
     15 C3B         -1.4310     0.0490     4.1890 ca         1 W56      -0.026500
     16 C4B         -0.1430    -0.1450     4.7330 ca         1 W56      -0.176900
     17 C5B          0.9530    -0.2920     3.8530 ca         1 W56      -0.026500
     18 C6B          0.7640    -0.2470     2.4610 ca         1 W56      -0.191500
     19 C2A          0.0540    -0.1920     6.2160 ce         1 W56       0.650200
     20 N3A          1.2070    -0.3470     6.7910 n2         1 W56      -0.651900
     21 C4A          0.9570    -0.1850     8.2430 c5         1 W56       0.089500
     22 CM1          1.4350     1.2130     8.6980 c3         1 W56      -0.084100
     23 C5A         -0.5720    -0.4010     8.3400 c5         1 W56       0.115600
     24 O1A         -1.0340    -0.0030     7.0400 os         1 W56      -0.455600
     25 H311        -0.1510     2.2380   -10.1040 hc         1 W56       0.055700
     26 H312        -0.2180     0.7090   -10.9970 hc         1 W56       0.055700
     27 H313        -1.6900     1.3770   -10.2650 hc         1 W56       0.055700
     28 H4           0.9160     1.9070    -7.6620 ha         1 W56       0.151000
     29 H1C1         1.8180     0.5900    -5.3810 hc         1 W56       0.062700
     30 H1C2         1.5570    -1.1490    -5.4130 hc         1 W56       0.062700
     31 H2C1        -0.7460    -0.8260    -4.4570 hc         1 W56       0.054200
     32 H2C2        -0.4920     0.9190    -4.4340 hc         1 W56       0.054200
     33 H3C1         1.4270     0.6180    -2.8360 hc         1 W56       0.040200
     34 H3C2         1.1730    -1.1270    -2.8600 hc         1 W56       0.040200
     35 H4C1        -1.1290    -0.8070    -1.9040 hc         1 W56       0.058700
     36 H4C2        -0.8760     0.9410    -1.8810 hc         1 W56       0.058700
     37 H5C1         1.0280     0.6530    -0.2800 h1         1 W56       0.036700
     38 H5C2         0.7710    -1.1140    -0.3040 h1         1 W56       0.036700
     39 H2B         -2.6120     0.2440     2.3880 ha         1 W56       0.125000
     40 H3B         -2.2950     0.1660     4.8410 ha         1 W56       0.133000
     41 H5B          1.9570    -0.4420     4.2460 ha         1 W56       0.133000
     42 H6B          1.6300    -0.3630     1.8160 ha         1 W56       0.125000
     43 H4A          1.4970    -0.9480     8.8210 h1         1 W56       0.074700
     44 HM11         2.5140     1.3290     8.5440 hc         1 W56       0.042367
     45 HM12         0.9270     2.0130     8.1450 hc         1 W56       0.042367
     46 HM13         1.2340     1.3650     9.7650 hc         1 W56       0.042367
     47 H5A1        -0.8140    -1.4620     8.4920 h1         1 W56       0.061700
     48 H5A2        -1.0580     0.1940     9.1250 h1         1 W56       0.061700
@<TRIPOS>BOND
     1     1     2 1   
     2     1     6 1   
     3     2     3 2   
     4     3     4 1   
     5     3     5 1   
     6     4    25 1   
     7     4    26 1   
     8     4    27 1   
     9     5     6 2   
    10     5    28 1   
    11     6     7 1   
    12     7     8 1   
    13     7    29 1   
    14     7    30 1   
    15     8     9 1   
    16     8    31 1   
    17     8    32 1   
    18     9    10 1   
    19     9    33 1   
    20     9    34 1   
    21    10    11 1   
    22    10    35 1   
    23    10    36 1   
    24    11    12 1   
    25    11    37 1   
    26    11    38 1   
    27    12    13 1   
    28    13    14 ar  
    29    13    18 ar  
    30    14    15 ar  
    31    14    39 1   
    32    15    16 ar  
    33    15    40 1   
    34    16    17 ar  
    35    16    19 1   
    36    17    18 ar  
    37    17    41 1   
    38    18    42 1   
    39    19    20 2   
    40    19    24 1   
    41    20    21 1   
    42    21    22 1   
    43    21    23 1   
    44    21    43 1   
    45    22    44 1   
    46    22    45 1   
    47    22    46 1   
    48    23    24 1   
    49    23    47 1   
    50    23    48 1   
@<TRIPOS>SUBSTRUCTURE
     1 W56         1 TEMP              0 ****  ****    0 ROOT
