@<TRIPOS>MOLECULE
W57
   28    30     1     0     0
SMALL
No Charge or Current Charge


@<TRIPOS>ATOM
      1 C10        -44.5680   -30.5400     1.7460 cc         1 W57       0.162300
      2 C17        -47.1250   -28.6400     3.0460 cc         1 W57       0.597400
      3 C02        -47.7540   -28.7940     5.2880 cd         1 W57       0.740900
      4 C03        -46.4660   -29.1810     5.5870 cc         1 W57      -0.111600
      5 C05        -44.6190   -29.8090     6.4380 cd         1 W57       0.537200
      6 C07        -45.5180   -29.2870     4.6290 cc         1 W57      -0.085000
      7 C09        -44.7680   -29.1280     2.2230 c3         1 W57       0.030300
      8 C11        -45.4270   -31.4260     1.1730 cd         1 W57      -0.291000
      9 C12        -44.6580   -32.5780     0.9560 cd         1 W57       0.489300
     10 C14        -46.4980   -33.8290    -0.0220 c3         1 W57       0.148900
     11 N01        -48.7720   -28.6640     6.1340 nv         1 W57      -1.034900
     12 N04        -45.8960   -29.5200     6.7780 nc         1 W57      -0.593100
     13 N06        -44.3460   -29.6680     5.0610 nd         1 W57      -0.423300
     14 N08        -45.7770   -29.0180     3.3000 na         1 W57      -0.159500
     15 N15        -43.4050   -32.4780     1.3400 nc         1 W57      -0.371300
     16 N18        -48.0970   -28.5280     3.9890 nd         1 W57      -0.807000
     17 O13        -45.1230   -33.7350     0.3940 os         1 W57      -0.423300
     18 O16        -43.3280   -31.1320     1.8670 os         1 W57      -0.030700
     19 H171       -47.3650   -28.4350     2.0100 h5         1 W57       0.046100
     20 H051       -43.8570   -30.1220     7.1420 h5         1 W57       0.054800
     21 H091       -43.8120   -28.7300     2.5870 h1         1 W57       0.096700
     22 H092       -45.0740   -28.5080     1.3720 h1         1 W57       0.096700
     23 H111       -46.4730   -31.2650     0.9440 ha         1 W57       0.153000
     24 H141       -46.7000   -34.8200    -0.4490 h1         1 W57       0.048033
     25 H142       -47.1750   -33.6820     0.8290 h1         1 W57       0.048033
     26 H143       -46.7280   -33.0770    -0.7880 h1         1 W57       0.048033
     27 H011       -49.6800   -28.7240     5.6930 hn         1 W57       0.514500
     28 H012       -48.6650   -29.1610     7.0100 hn         1 W57       0.514500
@<TRIPOS>BOND
     1     1     7 1   
     2     1     8 2   
     3     1    18 1   
     4     2    14 1   
     5     2    16 2   
     6     2    19 1   
     7     3     4 2   
     8     3    11 1   
     9     3    16 1   
    10     4     6 1   
    11     4    12 1   
    12     5    12 2   
    13     5    13 1   
    14     5    20 1   
    15     6    13 2   
    16     6    14 1   
    17     7    14 1   
    18     7    21 1   
    19     7    22 1   
    20     8     9 1   
    21     8    23 1   
    22     9    15 2   
    23     9    17 1   
    24    10    17 1   
    25    10    24 1   
    26    10    25 1   
    27    10    26 1   
    28    11    27 1   
    29    11    28 1   
    30    15    18 1   
@<TRIPOS>SUBSTRUCTURE
     1 W57         1 TEMP              0 ****  ****    0 ROOT
