@<TRIPOS>MOLECULE
W57
   28    30     1     0     0
SMALL
abcg2


@<TRIPOS>ATOM
      1 C10        -45.1090   -30.8260     1.8940 cc         1 W57       0.162300
      2 C17        -47.3280   -29.0420     3.3540 cc         1 W57       0.597400
      3 C02        -47.6530   -28.8380     5.6220 cd         1 W57       0.740900
      4 C03        -46.2710   -28.9510     5.8110 cc         1 W57      -0.111600
      5 C05        -44.2690   -29.0960     6.3990 cd         1 W57       0.537200
      6 C07        -45.4500   -29.1240     4.6930 cc         1 W57      -0.085000
      7 C09        -45.1710   -29.3860     2.2580 c3         1 W57       0.030300
      8 C11        -45.5130   -31.4910     0.7900 cd         1 W57      -0.291000
      9 C12        -45.1700   -32.8390     1.0930 cd         1 W57       0.489300
     10 C14        -45.9580   -33.7780    -0.8980 c3         1 W57       0.148900
     11 N01        -48.5190   -28.6830     6.6130 nv         1 W57      -1.034900
     12 N04        -45.4770   -28.9370     6.9160 nc         1 W57      -0.593100
     13 N06        -44.1800   -29.2170     5.0510 nd         1 W57      -0.423300
     14 N08        -45.9950   -29.1650     3.4400 na         1 W57      -0.159500
     15 N15        -44.6200   -32.9460     2.2710 nc         1 W57      -0.371300
     16 N18        -48.1390   -28.8850     4.3570 nd         1 W57      -0.807000
     17 O13        -45.3330   -33.9340     0.3710 os         1 W57      -0.423300
     18 O16        -44.5790   -31.6750     2.7720 os         1 W57      -0.030700
     19 H171       -47.7410   -29.0740     2.3530 h5         1 W57       0.046100
     20 H051       -43.3820   -29.1290     7.0170 h5         1 W57       0.054800
     21 H091       -44.1770   -28.9900     2.4620 h1         1 W57       0.096700
     22 H092       -45.5860   -28.8240     1.4240 h1         1 W57       0.096700
     23 H111       -45.9810   -31.0860    -0.0910 ha         1 W57       0.153000
     24 H141       -46.0020   -34.7680    -1.3430 h1         1 W57       0.048033
     25 H142       -46.9730   -33.3890    -0.7980 h1         1 W57       0.048033
     26 H143       -45.3800   -33.1200    -1.5500 h1         1 W57       0.048033
     27 H011       -49.5060   -28.6260     6.4270 hn         1 W57       0.514500
     28 H012       -48.2120   -28.6600     7.5700 hn         1 W57       0.514500
@<TRIPOS>BOND
     1     1     7 1   
     2     1     8 2   
     3     1    18 1   
     4     2    14 1   
     5     2    16 2   
     6     2    19 1   
     7     3     4 2   
     8     3    11 1   
     9     3    16 1   
    10     4     6 1   
    11     4    12 1   
    12     5    12 2   
    13     5    13 1   
    14     5    20 1   
    15     6    13 2   
    16     6    14 1   
    17     7    14 1   
    18     7    21 1   
    19     7    22 1   
    20     8     9 1   
    21     8    23 1   
    22     9    15 2   
    23     9    17 1   
    24    10    17 1   
    25    10    24 1   
    26    10    25 1   
    27    10    26 1   
    28    11    27 1   
    29    11    28 1   
    30    15    18 1   
@<TRIPOS>SUBSTRUCTURE
     1 W57         1 TEMP              0 ****  ****    0 ROOT
