@<TRIPOS>MOLECULE
W58
   29    31     1     0     0
SMALL
No Charge or Current Charge


@<TRIPOS>ATOM
      1 C1         136.0940   147.9340    99.0340 c2         1 W58      -0.194200
      2 C2         136.7760   147.5270   100.1340 ce         1 W58      -0.070400
      3 C3         138.2620   147.6610   100.2380 ca         1 W58      -0.043800
      4 C4         139.0340   146.6350   100.8780 ca         1 W58      -0.110000
      5 C5         140.4450   146.7320   100.9980 ca         1 W58      -0.081000
      6 C6         141.0110   147.8810   100.4550 ca         1 W58      -0.112300
      7 C7         140.2930   148.8520    99.8520 ca         1 W58      -0.115300
      8 C8         138.9080   148.8120    99.7060 ca         1 W58      -0.073000
      9 C9         141.4900   149.7240    99.5410 cy         1 W58      -0.033100
     10 C10        142.3470   148.5650   100.2600 cy         1 W58      -0.033100
     11 C11        136.0330   146.9240   101.3440 c6         1 W58       0.196000
     12 C13        133.9530   146.9740   100.0400 c6         1 W58       0.156800
     13 C14        134.5750   147.8570    98.9300 c6         1 W58      -0.039200
     14 N12        134.5860   147.2590   101.3460 n7         1 W58      -0.859400
     15 H1         136.6120   148.3560    98.1720 ha         1 W58       0.172000
     16 H3         138.5400   145.7530   101.2770 ha         1 W58       0.108000
     17 H4         141.0430   145.9610   101.4800 ha         1 W58       0.118000
     18 H5         138.3630   149.6200    99.2250 ha         1 W58       0.120000
     19 H6         141.6930   149.8660    98.4740 hc         1 W58       0.059200
     20 H7         141.4970   150.6960   100.0470 hc         1 W58       0.059200
     21 H8         142.8530   148.8600   101.1850 hc         1 W58       0.059200
     22 H9         143.0490   148.0290    99.6110 hc         1 W58       0.059200
     23 H10        136.1460   145.8290   101.3180 h1         1 W58       0.038700
     24 H11        136.4910   147.2800   102.2790 h1         1 W58       0.038700
     25 H12        134.0970   145.9120    99.7900 h1         1 W58       0.031200
     26 H13        132.8700   147.1610   100.0980 h1         1 W58       0.031200
     27 H15        134.1630   148.8720    99.0030 hc         1 W58       0.053200
     28 H16        134.2810   147.4730    97.9430 hc         1 W58       0.053200
     29 H17        134.1230   146.7010   102.0750 hn         1 W58       0.410000
@<TRIPOS>BOND
     1     1     2 2   
     2     1    13 1   
     3     1    15 1   
     4     2     3 1   
     5     2    11 1   
     6     3     4 ar  
     7     3     8 ar  
     8     4     5 ar  
     9     4    16 1   
    10     5     6 ar  
    11     5    17 1   
    12     6     7 ar  
    13     6    10 1   
    14     7     8 ar  
    15     7     9 1   
    16     8    18 1   
    17     9    10 1   
    18     9    19 1   
    19     9    20 1   
    20    10    21 1   
    21    10    22 1   
    22    11    14 1   
    23    11    23 1   
    24    11    24 1   
    25    12    13 1   
    26    12    14 1   
    27    12    25 1   
    28    12    26 1   
    29    13    27 1   
    30    13    28 1   
    31    14    29 1   
@<TRIPOS>SUBSTRUCTURE
     1 W58         1 TEMP              0 ****  ****    0 ROOT
