@<TRIPOS>MOLECULE
W58
   29    31     1     0     0
SMALL
abcg2


@<TRIPOS>ATOM
      1 C1         136.0640   148.0650    99.1410 c2         1 W58      -0.194200
      2 C2         136.7590   147.5800   100.1780 ce         1 W58      -0.070400
      3 C3         138.2320   147.7090   100.2770 ca         1 W58      -0.043800
      4 C4         138.9760   146.7480   100.9860 ca         1 W58      -0.110000
      5 C5         140.3700   146.8020   101.1040 ca         1 W58      -0.081000
      6 C6         140.9970   147.8660   100.4870 ca         1 W58      -0.112300
      7 C7         140.2750   148.8330    99.7930 ca         1 W58      -0.115300
      8 C8         138.9030   148.7940    99.6710 ca         1 W58      -0.073000
      9 C9         141.5150   149.6430    99.4450 cy         1 W58      -0.033100
     10 C10        142.3350   148.5400   100.2260 cy         1 W58      -0.033100
     11 C11        136.0430   146.8560   101.2960 c6         1 W58       0.196000
     12 C13        134.0170   146.9120    99.9840 c6         1 W58       0.156800
     13 C14        134.5770   147.9280    98.9970 c6         1 W58      -0.039200
     14 N12        134.6120   147.1530   101.2980 n7         1 W58      -0.859400
     15 H1         136.5860   148.5770    98.3400 ha         1 W58       0.172000
     16 H3         138.4540   145.9210   101.4490 ha         1 W58       0.108000
     17 H4         140.9020   146.0380   101.6580 ha         1 W58       0.118000
     18 H5         138.3440   149.5650    99.1560 ha         1 W58       0.120000
     19 H6         141.7480   149.7150    98.3810 hc         1 W58       0.059200
     20 H7         141.5620   150.6400    99.8870 hc         1 W58       0.059200
     21 H8         142.8610   148.9040   101.1110 hc         1 W58       0.059200
     22 H9         143.0330   147.9730    99.6080 hc         1 W58       0.059200
     23 H10        136.2350   145.7740   101.2020 h1         1 W58       0.038700
     24 H11        136.4650   147.1630   102.2560 h1         1 W58       0.038700
     25 H12        134.2370   145.8950    99.6190 h1         1 W58       0.031200
     26 H13        132.9340   147.0080   100.0630 h1         1 W58       0.031200
     27 H15        134.1020   148.9040    99.1530 hc         1 W58       0.053200
     28 H16        134.3320   147.6290    97.9730 hc         1 W58       0.053200
     29 H17        134.1580   146.5720   101.9930 hn         1 W58       0.410000
@<TRIPOS>BOND
     1     1     2 2   
     2     1    13 1   
     3     1    15 1   
     4     2     3 1   
     5     2    11 1   
     6     3     4 ar  
     7     3     8 ar  
     8     4     5 ar  
     9     4    16 1   
    10     5     6 ar  
    11     5    17 1   
    12     6     7 ar  
    13     6    10 1   
    14     7     8 ar  
    15     7     9 1   
    16     8    18 1   
    17     9    10 1   
    18     9    19 1   
    19     9    20 1   
    20    10    21 1   
    21    10    22 1   
    22    11    14 1   
    23    11    23 1   
    24    11    24 1   
    25    12    13 1   
    26    12    14 1   
    27    12    25 1   
    28    12    26 1   
    29    13    27 1   
    30    13    28 1   
    31    14    29 1   
@<TRIPOS>SUBSTRUCTURE
     1 W58         1 TEMP              0 ****  ****    0 ROOT
