@<TRIPOS>MOLECULE
W59
   57    59     1     0     0
SMALL
No Charge or Current Charge


@<TRIPOS>ATOM
      1 O1          -0.5990     0.9930     9.1380 os         1 W59      -0.077700
      2 N2          -1.0350     0.5210    10.4340 nc         1 W59      -0.366300
      3 C3          -0.3660    -0.6030    10.6140 cd         1 W59       0.279300
      4 C31         -0.5420    -1.4120    11.8670 c3         1 W59      -0.133400
      5 C4           0.4780    -0.9060     9.5330 cd         1 W59      -0.252000
      6 C5           0.3120     0.0970     8.6330 cc         1 W59       0.186300
      7 C1C          0.9360     0.3400     7.2880 c3         1 W59      -0.117700
      8 C2C         -0.0260     0.0430     6.1170 c3         1 W59      -0.073400
      9 C3C          0.6150     0.2830     4.7320 c3         1 W59      -0.075400
     10 C4C         -0.3480    -0.0140     3.5620 c3         1 W59      -0.074400
     11 C5C          0.2920     0.2270     2.1770 c3         1 W59      -0.073400
     12 C6C         -0.6700    -0.0710     1.0060 c3         1 W59      -0.082400
     13 C7C         -0.0290     0.1700    -0.3740 c3         1 W59       0.165600
     14 O1B         -1.0160    -0.1390    -1.3730 os         1 W59      -0.347100
     15 C1B         -0.7550    -0.0250    -2.7220 ca         1 W59       0.171100
     16 C2B         -1.7830    -0.3500    -3.6180 ca         1 W59      -0.190500
     17 C3B         -1.5800    -0.2550    -5.0060 ca         1 W59      -0.026500
     18 C4B         -0.3350     0.1710    -5.5180 ca         1 W59      -0.175900
     19 C5B          0.6980     0.4980    -4.6120 ca         1 W59      -0.026500
     20 C6B          0.4920     0.4010    -3.2240 ca         1 W59      -0.190500
     21 C2A         -0.1180     0.2720    -6.9950 ce         1 W59       0.649200
     22 N3A          1.0000     0.6390    -7.5420 n2         1 W59      -0.649900
     23 C4A          0.8240     0.4280    -9.0000 c5         1 W59       0.088500
     24 CM1          1.5400    -0.8740    -9.4490 c3         1 W59      -0.063400
     25 CM2          3.0780    -0.8330    -9.3280 c3         1 W59      -0.082100
     26 C5A         -0.7180     0.3810    -9.1340 c5         1 W59       0.115600
     27 O1A         -1.1350    -0.1000    -7.8460 os         1 W59      -0.455600
     28 H311         0.0860    -2.3100    11.8480 hc         1 W59       0.056033
     29 H312        -0.2670    -0.8280    12.7530 hc         1 W59       0.056033
     30 H313        -1.5840    -1.7330    11.9820 hc         1 W59       0.056033
     31 H4           1.1290    -1.7660     9.4350 ha         1 W59       0.151000
     32 H1C1         1.8340    -0.2820     7.1860 hc         1 W59       0.062700
     33 H1C2         1.2700     1.3830     7.2280 hc         1 W59       0.062700
     34 H2C1        -0.9190     0.6720     6.2160 hc         1 W59       0.052200
     35 H2C2        -0.3610    -1.0000     6.1840 hc         1 W59       0.052200
     36 H3C1         1.5070    -0.3470     4.6340 hc         1 W59       0.038700
     37 H3C2         0.9500     1.3260     4.6670 hc         1 W59       0.038700
     38 H4C1        -1.2410     0.6160     3.6610 hc         1 W59       0.043200
     39 H4C2        -0.6830    -1.0570     3.6270 hc         1 W59       0.043200
     40 H5C1         1.1850    -0.4040     2.0780 hc         1 W59       0.039700
     41 H5C2         0.6280     1.2700     2.1120 hc         1 W59       0.039700
     42 H6C1        -1.5620     0.5600     1.1010 hc         1 W59       0.056700
     43 H6C2        -1.0030    -1.1140     1.0670 hc         1 W59       0.056700
     44 H7C1         0.8520    -0.4740    -0.4870 h1         1 W59       0.036700
     45 H7C2         0.2880     1.2190    -0.4530 h1         1 W59       0.036700
     46 H2B         -2.7450    -0.6790    -3.2350 ha         1 W59       0.125000
     47 H3B         -2.3950    -0.5140    -5.6790 ha         1 W59       0.132500
     48 H5B          1.6680     0.8290    -4.9800 ha         1 W59       0.132500
     49 H6B          1.3100     0.6610    -2.5590 ha         1 W59       0.125000
     50 H4A          1.2350     1.2730    -9.5710 h1         1 W59       0.074700
     51 HM11         1.2890    -1.0770   -10.4970 hc         1 W59       0.039700
     52 HM12         1.1650    -1.7300    -8.8740 hc         1 W59       0.039700
     53 HM21         3.5150    -1.7670    -9.7020 hc         1 W59       0.037033
     54 HM22         3.4910    -0.0030    -9.9150 hc         1 W59       0.037033
     55 HM23         3.3880    -0.7070    -8.2840 hc         1 W59       0.037033
     56 H5A1        -1.1330     1.3860    -9.2870 h1         1 W59       0.061200
     57 H5A2        -1.0760    -0.2830    -9.9320 h1         1 W59       0.061200
@<TRIPOS>BOND
     1     1     2 1   
     2     1     6 1   
     3     2     3 2   
     4     3     4 1   
     5     3     5 1   
     6     4    28 1   
     7     4    29 1   
     8     4    30 1   
     9     5     6 2   
    10     5    31 1   
    11     6     7 1   
    12     7     8 1   
    13     7    32 1   
    14     7    33 1   
    15     8     9 1   
    16     8    34 1   
    17     8    35 1   
    18     9    10 1   
    19     9    36 1   
    20     9    37 1   
    21    10    11 1   
    22    10    38 1   
    23    10    39 1   
    24    11    12 1   
    25    11    40 1   
    26    11    41 1   
    27    12    13 1   
    28    12    42 1   
    29    12    43 1   
    30    13    14 1   
    31    13    44 1   
    32    13    45 1   
    33    14    15 1   
    34    15    16 ar  
    35    15    20 ar  
    36    16    17 ar  
    37    16    46 1   
    38    17    18 ar  
    39    17    47 1   
    40    18    19 ar  
    41    18    21 1   
    42    19    20 ar  
    43    19    48 1   
    44    20    49 1   
    45    21    22 2   
    46    21    27 1   
    47    22    23 1   
    48    23    24 1   
    49    23    26 1   
    50    23    50 1   
    51    24    25 1   
    52    24    51 1   
    53    24    52 1   
    54    25    53 1   
    55    25    54 1   
    56    25    55 1   
    57    26    27 1   
    58    26    56 1   
    59    26    57 1   
@<TRIPOS>SUBSTRUCTURE
     1 W59         1 TEMP              0 ****  ****    0 ROOT
