@<TRIPOS>MOLECULE
W59
   57    59     1     0     0
SMALL
bcc


@<TRIPOS>ATOM
      1 O1          -0.3830     1.0240     8.8020 os         1 W59      -0.122100
      2 N2          -0.8200     0.8690    10.0890 nc         1 W59      -0.366300
      3 C3          -0.2690    -0.2230    10.5340 cd         1 W59       0.344600
      4 C31         -0.5180    -0.7030    11.9190 c3         1 W59      -0.133400
      5 C4           0.5500    -0.8160     9.5370 cd         1 W59      -0.400600
      6 C5           0.4350     0.0170     8.4760 cc         1 W59       0.296000
      7 C1C          1.0140     0.0030     7.1100 c3         1 W59      -0.117700
      8 C2C         -0.0350    -0.0570     5.9970 c3         1 W59      -0.073400
      9 C3C          0.6060    -0.0930     4.6160 c3         1 W59      -0.075400
     10 C4C         -0.4190    -0.1530     3.4910 c3         1 W59      -0.074400
     11 C5C          0.2160    -0.1320     2.1070 c3         1 W59      -0.073400
     12 C6C         -0.8150    -0.2380     0.9890 c3         1 W59      -0.082400
     13 C7C         -0.1730    -0.1140    -0.3760 c3         1 W59       0.142400
     14 O1B         -1.1860    -0.2900    -1.3590 os         1 W59      -0.323900
     15 C1B         -0.8690    -0.1870    -2.6570 ca         1 W59       0.171100
     16 C2B         -1.9060    -0.4050    -3.5680 ca         1 W59      -0.208500
     17 C3B         -1.6760    -0.3080    -4.9250 ca         1 W59      -0.044500
     18 C4B         -0.4070     0.0130    -5.4130 ca         1 W59      -0.175900
     19 C5B          0.6220     0.2200    -4.4990 ca         1 W59      -0.044500
     20 C6B          0.4060     0.1210    -3.1350 ca         1 W59      -0.208500
     21 C2A         -0.1390     0.1460    -6.8450 ce         1 W59       0.649200
     22 N3A          0.9630     0.5000    -7.3600 n2         1 W59      -0.649900
     23 C4A          0.7920     0.4970    -8.8070 c5         1 W59       0.088500
     24 CM1          1.7920    -0.4240    -9.4950 c3         1 W59      -0.063400
     25 CM2          3.2390    -0.0190    -9.2570 c3         1 W59      -0.082100
     26 C5A         -0.6760     0.0660    -9.0070 c5         1 W59       0.092400
     27 O1A         -1.1650    -0.1230    -7.6720 os         1 W59      -0.432400
     28 H311        -0.9030    -1.7230    11.9090 hc         1 W59       0.056033
     29 H312         0.4070    -0.7110    12.4950 hc         1 W59       0.056033
     30 H313        -1.2370    -0.0670    12.4320 hc         1 W59       0.056033
     31 H4           1.1300    -1.7210     9.6070 ha         1 W59       0.169000
     32 H1C1         1.6800    -0.8590     7.0400 hc         1 W59       0.062700
     33 H1C2         1.6410     0.8910     6.9740 hc         1 W59       0.062700
     34 H2C1        -0.6990     0.8100     6.0660 hc         1 W59       0.052200
     35 H2C2        -0.6630    -0.9420     6.1360 hc         1 W59       0.052200
     36 H3C1         1.2750    -0.9570     4.5450 hc         1 W59       0.038700
     37 H3C2         1.2380     0.7920     4.4890 hc         1 W59       0.038700
     38 H4C1        -1.1100     0.6920     3.5840 hc         1 W59       0.043200
     39 H4C2        -1.0280    -1.0560     3.6010 hc         1 W59       0.043200
     40 H5C1         0.9330    -0.9550     2.0190 hc         1 W59       0.039700
     41 H5C2         0.7950     0.7900     1.9910 hc         1 W59       0.039700
     42 H6C1        -1.5680     0.5470     1.1070 hc         1 W59       0.056700
     43 H6C2        -1.3370    -1.1960     1.0630 hc         1 W59       0.056700
     44 H7C1         0.6110    -0.8690    -0.5060 h1         1 W59       0.036700
     45 H7C2         0.2940     0.8710    -0.4830 h1         1 W59       0.036700
     46 H2B         -2.8940    -0.6500    -3.2000 ha         1 W59       0.143000
     47 H3B         -2.5010    -0.4800    -5.6040 ha         1 W59       0.150500
     48 H5B          1.6130     0.4650    -4.8590 ha         1 W59       0.150500
     49 H6B          1.2370     0.2870    -2.4630 ha         1 W59       0.143000
     50 H4A          0.9510     1.5140    -9.1820 h1         1 W59       0.074700
     51 HM11         1.5790    -0.4180   -10.5680 hc         1 W59       0.039700
     52 HM12         1.6260    -1.4510    -9.1540 hc         1 W59       0.039700
     53 HM21         3.9240    -0.6800    -9.7890 hc         1 W59       0.037033
     54 HM22         3.4260     0.9980    -9.6040 hc         1 W59       0.037033
     55 HM23         3.4910    -0.0590    -8.1970 hc         1 W59       0.037033
     56 H5A1        -1.2850     0.8230    -9.5020 h1         1 W59       0.061200
     57 H5A2        -0.7760    -0.8740    -9.5540 h1         1 W59       0.061200
@<TRIPOS>BOND
     1     1     2 1   
     2     1     6 1   
     3     2     3 2   
     4     3     4 1   
     5     3     5 1   
     6     4    28 1   
     7     4    29 1   
     8     4    30 1   
     9     5     6 2   
    10     5    31 1   
    11     6     7 1   
    12     7     8 1   
    13     7    32 1   
    14     7    33 1   
    15     8     9 1   
    16     8    34 1   
    17     8    35 1   
    18     9    10 1   
    19     9    36 1   
    20     9    37 1   
    21    10    11 1   
    22    10    38 1   
    23    10    39 1   
    24    11    12 1   
    25    11    40 1   
    26    11    41 1   
    27    12    13 1   
    28    12    42 1   
    29    12    43 1   
    30    13    14 1   
    31    13    44 1   
    32    13    45 1   
    33    14    15 1   
    34    15    16 ar  
    35    15    20 ar  
    36    16    17 ar  
    37    16    46 1   
    38    17    18 ar  
    39    17    47 1   
    40    18    19 ar  
    41    18    21 1   
    42    19    20 ar  
    43    19    48 1   
    44    20    49 1   
    45    21    22 2   
    46    21    27 1   
    47    22    23 1   
    48    23    24 1   
    49    23    26 1   
    50    23    50 1   
    51    24    25 1   
    52    24    51 1   
    53    24    52 1   
    54    25    53 1   
    55    25    54 1   
    56    25    55 1   
    57    26    27 1   
    58    26    56 1   
    59    26    57 1   
@<TRIPOS>SUBSTRUCTURE
     1 W59         1 TEMP              0 ****  ****    0 ROOT
