@<TRIPOS>MOLECULE
W5A
   27    29     1     0     0
SMALL
No Charge or Current Charge


@<TRIPOS>ATOM
      1 C10        -44.5730   -28.4240     1.2120 cc         1 W5A       0.241300
      2 C13        -44.8230   -26.6810    -0.1180 cd         1 W5A       0.444700
      3 C02        -47.5110   -28.8010     5.2780 cc         1 W5A       0.740900
      4 C03        -46.2020   -29.1860     5.4660 cd         1 W5A      -0.114600
      5 C05        -44.3390   -29.7160     6.1490 cc         1 W5A       0.528200
      6 C07        -45.4230   -29.4690     4.3870 cd         1 W5A      -0.088000
      7 C09        -45.0560   -29.6760     1.8940 c3         1 W5A       0.053300
      8 C11        -43.3290   -27.8630     1.3680 cd         1 W5A      -0.212000
      9 C14        -45.5260   -25.7580    -1.0690 c3         1 W5A      -0.130400
     10 C16        -47.2470   -28.9820     2.9760 cd         1 W5A       0.610400
     11 N01        -48.4190   -28.5020     6.1980 nv         1 W5A      -1.040900
     12 N04        -45.5300   -29.3390     6.6560 nd         1 W5A      -0.597100
     13 N06        -44.2190   -29.8120     4.7620 nc         1 W5A      -0.438300
     14 N08        -45.8850   -29.3930     3.0830 na         1 W5A      -0.148500
     15 N15        -45.4280   -27.7540     0.3710 nc         1 W5A      -0.652000
     16 N17        -48.0500   -28.7050     4.0380 nc         1 W5A      -0.816000
     17 S12        -43.1690   -26.4020     0.4100 ss         1 W5A      -0.026400
     18 H051       -43.4740   -29.9490     6.7590 h5         1 W5A       0.049800
     19 H092       -45.6460   -30.2660     1.1820 h1         1 W5A       0.080700
     20 H091       -44.1910   -30.2850     2.1820 h1         1 W5A       0.080700
     21 H111       -42.5120   -28.2170     1.9850 h4         1 W5A       0.174000
     22 H142       -44.8670   -24.9430    -1.3890 hc         1 W5A       0.060033
     23 H141       -45.8530   -26.2970    -1.9650 hc         1 W5A       0.060033
     24 H143       -46.4090   -25.3120    -0.5980 hc         1 W5A       0.060033
     25 H161       -47.6350   -28.9080     1.9670 h5         1 W5A       0.053100
     26 H012       -49.3670   -28.5970     5.8630 hn         1 W5A       0.513000
     27 H011       -48.2280   -28.8830     7.1170 hn         1 W5A       0.513000
@<TRIPOS>BOND
     1     1     7 1   
     2     1     8 2   
     3     1    15 1   
     4     2     9 1   
     5     2    15 2   
     6     2    17 1   
     7     3     4 2   
     8     3    11 1   
     9     3    16 1   
    10     4     6 1   
    11     4    12 1   
    12     5    12 2   
    13     5    13 1   
    14     5    18 1   
    15     6    13 2   
    16     6    14 1   
    17     7    14 1   
    18     7    19 1   
    19     7    20 1   
    20     8    17 1   
    21     8    21 1   
    22     9    22 1   
    23     9    23 1   
    24     9    24 1   
    25    10    14 1   
    26    10    16 2   
    27    10    25 1   
    28    11    26 1   
    29    11    27 1   
@<TRIPOS>SUBSTRUCTURE
     1 W5A         1 TEMP              0 ****  ****    0 ROOT
