@<TRIPOS>MOLECULE
W5A
   27    29     1     0     0
SMALL
abcg2


@<TRIPOS>ATOM
      1 C10        -44.5490   -28.6360     1.2380 cc         1 W5A       0.241300
      2 C13        -44.8230   -26.6920     0.2400 cd         1 W5A       0.444700
      3 C02        -47.6380   -28.9450     5.0250 cc         1 W5A       0.740900
      4 C03        -46.2580   -28.9980     5.2470 cd         1 W5A      -0.114600
      5 C05        -44.2610   -28.9930     5.8690 cc         1 W5A       0.528200
      6 C07        -45.4200   -29.3440     4.1830 cd         1 W5A      -0.088000
      7 C09        -45.0810   -29.9080     1.8140 c3         1 W5A       0.053300
      8 C11        -43.2470   -28.2600     1.2190 cd         1 W5A      -0.212000
      9 C14        -45.4940   -25.5300    -0.4030 c3         1 W5A      -0.130400
     10 C16        -47.2770   -29.5550     2.8360 cd         1 W5A       0.610400
     11 N01        -48.5190   -28.6190     5.9630 nv         1 W5A      -1.040900
     12 N04        -45.4790   -28.7730     6.3390 nd         1 W5A      -0.597100
     13 N06        -44.1510   -29.3440     4.5640 nc         1 W5A      -0.438300
     14 N08        -45.9460   -29.6340     2.9560 na         1 W5A      -0.148500
     15 N15        -45.4260   -27.7450     0.6850 nc         1 W5A      -0.652000
     16 N17        -48.1070   -29.2400     3.7890 nc         1 W5A      -0.816000
     17 S12        -43.1050   -26.7270     0.4690 ss         1 W5A      -0.026400
     18 H051       -43.3820   -28.8980     6.4930 h5         1 W5A       0.049800
     19 H092       -45.6700   -30.4500     1.0740 h1         1 W5A       0.080700
     20 H091       -44.2720   -30.5580     2.1400 h1         1 W5A       0.080700
     21 H111       -42.3920   -28.7930     1.6020 h4         1 W5A       0.174000
     22 H142       -44.9850   -25.2300    -1.3170 hc         1 W5A       0.060033
     23 H141       -46.5220   -25.7890    -0.6450 hc         1 W5A       0.060033
     24 H143       -45.5070   -24.6680     0.2660 hc         1 W5A       0.060033
     25 H161       -47.6770   -29.7880     1.8580 h5         1 W5A       0.053100
     26 H012       -49.5030   -28.6000     5.7580 hn         1 W5A       0.513000
     27 H011       -48.2200   -28.4050     6.8990 hn         1 W5A       0.513000
@<TRIPOS>BOND
     1     1     7 1   
     2     1     8 2   
     3     1    15 1   
     4     2     9 1   
     5     2    15 2   
     6     2    17 1   
     7     3     4 2   
     8     3    11 1   
     9     3    16 1   
    10     4     6 1   
    11     4    12 1   
    12     5    12 2   
    13     5    13 1   
    14     5    18 1   
    15     6    13 2   
    16     6    14 1   
    17     7    14 1   
    18     7    19 1   
    19     7    20 1   
    20     8    17 1   
    21     8    21 1   
    22     9    22 1   
    23     9    23 1   
    24     9    24 1   
    25    10    14 1   
    26    10    16 2   
    27    10    25 1   
    28    11    26 1   
    29    11    27 1   
@<TRIPOS>SUBSTRUCTURE
     1 W5A         1 TEMP              0 ****  ****    0 ROOT
