@<TRIPOS>MOLECULE
W5C
   27    28     1     0     0
SMALL
abcg2


@<TRIPOS>ATOM
      1 N1          29.9330    14.1740    42.2580 nc         1 W5C      -0.369000
      2 C7          26.7730    16.7040    38.1950 ca         1 W5C      -0.125500
      3 C8          27.4460    15.4870    38.0960 ca         1 W5C      -0.086000
      4 N2          30.4900    15.4100    42.4750 nc         1 W5C      -0.321000
      5 C9          28.7140    15.3460    38.6480 ca         1 W5C      -0.125500
      6 C1          28.6340    14.3460    42.1610 cd         1 W5C       0.385400
      7 C5          28.6370    17.6350    39.4220 ca         1 W5C      -0.181600
      8 C6          27.3660    17.7710    38.8490 ca         1 W5C      -0.065500
      9 C4          29.2150    18.8000    40.1420 c          1 W5C       0.582700
     10 C3          30.3550    18.5780    41.1140 c3         1 W5C      -0.053400
     11 C2          29.5110    16.2920    42.4870 cd         1 W5C       0.444800
     12 O           28.7560    19.9220    40.0060 o          1 W5C      -0.512100
     13 C10         29.3080    16.4130    39.3090 ca         1 W5C      -0.065500
     14 S           29.7060    18.0120    42.7430 ss         1 W5C      -0.311300
     15 N           28.3120    15.6530    42.3000 na         1 W5C      -0.347000
     16 C           26.9750    16.2270    42.1970 c3         1 W5C       0.056900
     17 H2          26.9810    14.6510    37.5890 ha         1 W5C       0.118000
     18 H3          29.2410    14.4050    38.5690 ha         1 W5C       0.123000
     19 H4          27.9020    13.5710    41.9960 h5         1 W5C       0.065100
     20 H5          26.8500    18.7160    38.9410 ha         1 W5C       0.130500
     21 H6          31.1100    17.8750    40.7740 h1         1 W5C       0.104700
     22 H7          30.8210    19.5370    41.3310 h1         1 W5C       0.104700
     23 H8          30.2930    16.2820    39.7320 ha         1 W5C       0.130500
     24 H9          27.0420    17.2950    42.3750 h1         1 W5C       0.065033
     25 H10         26.5800    16.0480    41.2000 h1         1 W5C       0.065033
     26 H11         26.3260    15.7710    42.9430 h1         1 W5C       0.065033
     27 H1          25.7840    16.8130    37.7680 ha         1 W5C       0.123000
@<TRIPOS>BOND
     1     1     4 1   
     2     1     6 2   
     3     2     3 ar  
     4     2     8 ar  
     5     2    27 1   
     6     3     5 ar  
     7     3    17 1   
     8     4    11 2   
     9     5    13 ar  
    10     5    18 1   
    11     6    15 1   
    12     6    19 1   
    13     7     8 ar  
    14     7     9 1   
    15     7    13 ar  
    16     8    20 1   
    17     9    10 1   
    18     9    12 2   
    19    10    14 1   
    20    10    21 1   
    21    10    22 1   
    22    11    14 1   
    23    11    15 1   
    24    13    23 1   
    25    15    16 1   
    26    16    24 1   
    27    16    25 1   
    28    16    26 1   
@<TRIPOS>SUBSTRUCTURE
     1 W5C         1 TEMP              0 ****  ****    0 ROOT
