@<TRIPOS>MOLECULE
W5C
   27    28     1     0     0
SMALL
No Charge or Current Charge


@<TRIPOS>ATOM
      1 N1          29.5790    14.1390    41.8020 nc         1 W5C      -0.369000
      2 C7          26.8760    16.4610    38.2730 ca         1 W5C      -0.125500
      3 C8          27.7090    15.3730    37.9720 ca         1 W5C      -0.086000
      4 N2          30.2980    15.2770    42.1330 nc         1 W5C      -0.321000
      5 C9          29.0490    15.3850    38.3900 ca         1 W5C      -0.125500
      6 C1          28.2810    14.4290    41.9010 cd         1 W5C       0.385400
      7 C5          28.7220    17.5750    39.4350 ca         1 W5C      -0.181600
      8 C6          27.3790    17.5570    38.9950 ca         1 W5C      -0.065500
      9 C4          29.2220    18.7600    40.2360 c          1 W5C       0.582700
     10 C3          30.3620    18.5800    41.2550 c3         1 W5C      -0.053400
     11 C2          29.4000    16.1900    42.4410 cd         1 W5C       0.444800
     12 O           28.7010    19.8610    40.0970 o          1 W5C      -0.512100
     13 C10         29.5560    16.4780    39.1140 ca         1 W5C      -0.065500
     14 S           29.7520    17.8670    42.8630 ss         1 W5C      -0.311300
     15 N           28.1220    15.7330    42.3090 na         1 W5C      -0.347000
     16 C           26.8620    16.4640    42.5260 c3         1 W5C       0.056900
     17 H2          27.3190    14.5250    37.4130 ha         1 W5C       0.118000
     18 H3          29.6970    14.5440    38.1540 ha         1 W5C       0.123000
     19 H4          27.4460    13.7680    41.7020 h5         1 W5C       0.065100
     20 H5          26.7140    18.3880    39.2230 ha         1 W5C       0.130500
     21 H6          31.1530    17.9510    40.8340 h1         1 W5C       0.104700
     22 H7          30.7880    19.5720    41.4470 h1         1 W5C       0.104700
     23 H8          30.6000    16.4550    39.4150 ha         1 W5C       0.130500
     24 H9          26.8450    17.3680    41.9050 h1         1 W5C       0.065033
     25 H10         26.0090    15.8290    42.2560 h1         1 W5C       0.065033
     26 H11         26.7780    16.7500    43.5820 h1         1 W5C       0.065033
     27 H1          25.8380    16.4560    37.9470 ha         1 W5C       0.123000
@<TRIPOS>BOND
     1     1     4 1   
     2     1     6 2   
     3     2     3 ar  
     4     2     8 ar  
     5     2    27 1   
     6     3     5 ar  
     7     3    17 1   
     8     4    11 2   
     9     5    13 ar  
    10     5    18 1   
    11     6    15 1   
    12     6    19 1   
    13     7     8 ar  
    14     7     9 1   
    15     7    13 ar  
    16     8    20 1   
    17     9    10 1   
    18     9    12 2   
    19    10    14 1   
    20    10    21 1   
    21    10    22 1   
    22    11    14 1   
    23    11    15 1   
    24    13    23 1   
    25    15    16 1   
    26    16    24 1   
    27    16    25 1   
    28    16    26 1   
@<TRIPOS>SUBSTRUCTURE
     1 W5C         1 TEMP              0 ****  ****    0 ROOT
