@<TRIPOS>MOLECULE
W5D
   36    38     1     0     0
SMALL
bcc


@<TRIPOS>ATOM
      1 C10        -45.4640   -29.8550     4.0480 ca         1 W5D       0.759200
      2 C17        -47.5260   -28.1910     4.4730 cc         1 W5D      -0.161200
      3 C01        -46.6480   -31.2360     0.3540 c3         1 W5D       0.131400
      4 C03        -47.2350   -29.2000     1.4470 c3         1 W5D       0.116400
      5 C04        -45.8490   -28.7320     1.9150 c3         1 W5D       0.191800
      6 C05        -45.2480   -31.2030    -0.2670 c3         1 W5D      -0.103400
      7 C06        -44.2270   -32.0920     0.4310 c3         1 W5D      -0.074400
      8 C07        -44.0270   -31.7870     1.9180 c3         1 W5D      -0.090400
      9 C08        -43.8900   -30.2970     2.2680 c3         1 W5D       0.245800
     10 C12        -45.0090   -30.9910     6.0080 ca         1 W5D       0.706900
     11 C14        -46.6810   -29.5620     6.0750 ca         1 W5D       0.470800
     12 C16        -48.2200   -28.0250     5.6330 cd         1 W5D      -0.132100
     13 C18        -46.5200   -29.1850     4.7270 ca         1 W5D      -0.378400
     14 N09        -45.1120   -29.6590     2.7570 nh         1 W5D      -0.781300
     15 N11        -44.7360   -30.7460     4.7340 nb         1 W5D      -0.836000
     16 N13        -45.9540   -30.4550     6.7500 nb         1 W5D      -0.761000
     17 N15        -47.7080   -28.8520     6.5940 na         1 W5D      -0.265100
     18 O02        -47.2850   -29.9750     0.2770 os         1 W5D      -0.409600
     19 H171       -47.7350   -27.6480     3.5680 ha         1 W5D       0.150000
     20 H012       -46.6110   -31.5820     1.3930 h1         1 W5D       0.047200
     21 H031       -47.7390   -29.7200     2.2720 h1         1 W5D       0.054200
     22 H032       -47.8220   -28.3050     1.2270 h1         1 W5D       0.054200
     23 H041       -44.8850   -30.1740    -0.2620 hc         1 W5D       0.044200
     24 H1         -45.9720   -27.7860     2.4460 h1         1 W5D       0.058200
     25 H2         -45.3070   -31.4790    -1.3230 hc         1 W5D       0.044200
     26 H051       -45.2320   -28.4850     1.0510 h1         1 W5D       0.058200
     27 H061       -44.5050   -33.1440     0.3240 hc         1 W5D       0.039200
     28 H062       -43.2730   -31.9800    -0.0910 hc         1 W5D       0.039200
     29 H071       -44.8360   -32.2140     2.5100 hc         1 W5D       0.055700
     30 H072       -43.1250   -32.3040     2.2520 hc         1 W5D       0.055700
     31 H081       -43.1190   -30.1750     3.0280 h1         1 W5D       0.052700
     32 H082       -43.5570   -29.7240     1.4020 h1         1 W5D       0.052700
     33 H121       -44.3720   -31.7250     6.4920 h5         1 W5D       0.042100
     34 H161       -49.0500   -27.3730     5.8490 h4         1 W5D       0.166000
     35 H151       -48.0340   -28.9210     7.5440 hn         1 W5D       0.311700
     36 H011       -47.2760   -31.9520    -0.1840 h1         1 W5D       0.047200
@<TRIPOS>BOND
     1     1    13 ar  
     2     1    14 1   
     3     1    15 ar  
     4     2    12 2   
     5     2    13 1   
     6     2    19 1   
     7     3     6 1   
     8     3    18 1   
     9     3    20 1   
    10     3    36 1   
    11     4     5 1   
    12     4    18 1   
    13     4    21 1   
    14     4    22 1   
    15     5    14 1   
    16     5    24 1   
    17     5    26 1   
    18     6     7 1   
    19     6    23 1   
    20     6    25 1   
    21     7     8 1   
    22     7    27 1   
    23     7    28 1   
    24     8     9 1   
    25     8    29 1   
    26     8    30 1   
    27     9    14 1   
    28     9    31 1   
    29     9    32 1   
    30    10    15 ar  
    31    10    16 ar  
    32    10    33 1   
    33    11    13 ar  
    34    11    16 ar  
    35    11    17 1   
    36    12    17 1   
    37    12    34 1   
    38    17    35 1   
@<TRIPOS>SUBSTRUCTURE
     1 W5D         1 TEMP              0 ****  ****    0 ROOT
