@<TRIPOS>MOLECULE
W5D
   36    38     1     0     0
SMALL
No Charge or Current Charge


@<TRIPOS>ATOM
      1 C10        -45.5290   -29.9060     4.1210 ca         1 W5D       0.430900
      2 C17        -47.3620   -28.0530     4.5660 cc         1 W5D      -0.211200
      3 C01        -46.6610   -31.3850     0.4400 c3         1 W5D       0.154600
      4 C03        -47.3330   -29.2540     1.4900 c3         1 W5D       0.139600
      5 C04        -45.8880   -28.7760     1.8460 c3         1 W5D       0.191800
      6 C05        -45.3110   -31.2490    -0.3090 c3         1 W5D      -0.103400
      7 C06        -44.1180   -31.9910     0.3350 c3         1 W5D      -0.074400
      8 C07        -43.8430   -31.6910     1.8320 c3         1 W5D      -0.090400
      9 C08        -43.8200   -30.1940     2.2540 c3         1 W5D       0.245800
     10 C12        -45.2430   -31.2210     6.0080 ca         1 W5D       0.180900
     11 C14        -46.8120   -29.5740     6.1520 ca         1 W5D       0.142500
     12 C16        -48.1320   -27.8070     5.6870 cd         1 W5D      -0.182100
     13 C18        -46.5210   -29.1940     4.8570 ca         1 W5D      -0.247800
     14 N09        -45.1140   -29.6510     2.7720 nh         1 W5D      -0.781300
     15 N11        -44.8900   -30.9260     4.7400 nb         1 W5D      -0.310000
     16 N13        -46.1790   -30.5960     6.7490 nb         1 W5D      -0.235000
     17 N15        -47.7970   -28.7540     6.6770 na         1 W5D      -0.315400
     18 O02        -47.3680   -30.1320     0.3310 os         1 W5D      -0.456000
     19 H171       -47.4170   -27.4490     3.6670 ha         1 W5D       0.200000
     20 H012       -46.5150   -31.6590     1.4920 h1         1 W5D       0.047200
     21 H031       -47.7880   -29.7440     2.3610 h1         1 W5D       0.054200
     22 H032       -47.9350   -28.3620     1.2750 h1         1 W5D       0.054200
     23 H041       -45.0390   -30.1970    -0.4390 hc         1 W5D       0.044200
     24 H1         -45.9370   -27.7710     2.2790 h1         1 W5D       0.058200
     25 H2         -45.4470   -31.6320    -1.3270 hc         1 W5D       0.044200
     26 H051       -45.3400   -28.6150     0.9110 h1         1 W5D       0.058200
     27 H061       -44.2700   -33.0720     0.2210 hc         1 W5D       0.039200
     28 H062       -43.2160   -31.7480    -0.2410 hc         1 W5D       0.039200
     29 H071       -44.5590   -32.2440     2.4500 hc         1 W5D       0.055700
     30 H072       -42.8630   -32.1180     2.0740 hc         1 W5D       0.055700
     31 H081       -43.0590   -30.0770     3.0380 h1         1 W5D       0.052700
     32 H082       -43.4520   -29.5920     1.4120 h1         1 W5D       0.052700
     33 H121       -44.7180   -32.0490     6.4810 h5         1 W5D       0.042100
     34 H161       -48.8790   -27.0320     5.8540 h4         1 W5D       0.216000
     35 H151       -48.1930   -28.8260     7.6100 hn         1 W5D       0.362000
     36 H011       -47.2410   -32.1930    -0.0250 h1         1 W5D       0.047200
@<TRIPOS>BOND
     1     1    13 ar  
     2     1    14 1   
     3     1    15 ar  
     4     2    12 2   
     5     2    13 1   
     6     2    19 1   
     7     3     6 1   
     8     3    18 1   
     9     3    20 1   
    10     3    36 1   
    11     4     5 1   
    12     4    18 1   
    13     4    21 1   
    14     4    22 1   
    15     5    14 1   
    16     5    24 1   
    17     5    26 1   
    18     6     7 1   
    19     6    23 1   
    20     6    25 1   
    21     7     8 1   
    22     7    27 1   
    23     7    28 1   
    24     8     9 1   
    25     8    29 1   
    26     8    30 1   
    27     9    14 1   
    28     9    31 1   
    29     9    32 1   
    30    10    15 ar  
    31    10    16 ar  
    32    10    33 1   
    33    11    13 ar  
    34    11    16 ar  
    35    11    17 1   
    36    12    17 1   
    37    12    34 1   
    38    17    35 1   
@<TRIPOS>SUBSTRUCTURE
     1 W5D         1 TEMP              0 ****  ****    0 ROOT
