@<TRIPOS>MOLECULE
W5E
   43    46     1     0     0
SMALL
abcg2


@<TRIPOS>ATOM
      1 C10         12.5310   -16.1690     1.9830 ca         1 W5E       0.022800
      2 C13         15.1290   -16.6840     1.1370 ca         1 W5E       0.108100
      3 C15         13.1180   -17.3980     2.2670 ca         1 W5E      -0.163000
      4 C24          9.3750   -10.7750     5.8850 ca         1 W5E      -0.148000
      5 C26          7.7600   -10.2760     7.6080 ca         1 W5E      -0.222000
      6 C28          7.9560   -12.5170     6.7420 ca         1 W5E      -0.128000
      7 C01          8.8370   -14.0540     4.3280 ca         1 W5E      -0.003000
      8 C02          9.6030   -13.0880     4.9650 cp         1 W5E      -0.100000
      9 C03         10.9940   -13.0400     4.7460 ca         1 W5E      -0.091000
     10 C04         11.6270   -13.9350     3.9100 ca         1 W5E      -0.144000
     11 C05         10.8400   -14.8940     3.2810 ca         1 W5E      -0.055200
     12 C06          9.4490   -14.9790     3.4780 ca         1 W5E      -0.044800
     13 C07          8.9950   -16.1050     2.7000 cc         1 W5E      -0.165400
     14 C08         10.1130   -16.6310     2.0970 cd         1 W5E      -0.134100
     15 C11         13.2310   -15.2010     1.2830 ca         1 W5E      -0.106000
     16 C12         14.5300   -15.4630     0.8700 ca         1 W5E      -0.118000
     17 C14         14.4080   -17.6620     1.8380 ca         1 W5E       0.050100
     18 C18          7.6670   -16.6950     2.5460 c          1 W5E       0.473300
     19 C19          6.4620   -15.9780     3.1510 c          1 W5E       0.662000
     20 C23          8.9680   -12.1110     5.8750 cp         1 W5E       0.032000
     21 C25          8.7690    -9.8730     6.7450 ca         1 W5E      -0.081000
     22 C27          7.3510   -11.6070     7.6050 ca         1 W5E       0.136100
     23 N09         11.2120   -15.9110     2.4270 na         1 W5E      -0.009500
     24 O16         15.0560   -18.8230     2.0670 oh         1 W5E      -0.564100
     25 O17         16.3900   -16.9010     0.7170 oh         1 W5E      -0.540100
     26 O20          5.8920   -16.5430     4.0960 o          1 W5E      -0.700500
     27 O21          6.1840   -14.9080     2.5820 o          1 W5E      -0.700500
     28 O22          7.5070   -17.7230     1.9020 o          1 W5E      -0.589100
     29 O29          6.3850   -12.0740     8.4210 oh         1 W5E      -0.529100
     30 H1          12.5700   -18.1460     2.8300 ha         1 W5E       0.133000
     31 H4           7.6440   -13.5540     6.7700 ha         1 W5E       0.147000
     32 H5           7.7680   -14.0700     4.4800 ha         1 W5E       0.165000
     33 H6          11.5890   -12.2980     5.2630 ha         1 W5E       0.098000
     34 H7          12.6980   -13.8940     3.7640 ha         1 W5E       0.106000
     35 H8          10.1940   -17.4730     1.4280 h4         1 W5E       0.220000
     36 H9          12.7700   -14.2510     1.0490 ha         1 W5E       0.139000
     37 H10         15.0860   -14.7130     0.3220 ha         1 W5E       0.128000
     38 H11          9.0810    -8.8370     6.7430 ha         1 W5E       0.098000
     39 H12         14.4910   -19.4570     2.5230 ho         1 W5E       0.478000
     40 H13         16.6820   -17.7880     0.9590 ho         1 W5E       0.478000
     41 H15          6.0530   -11.3670     8.9860 ho         1 W5E       0.452000
     42 H2          10.1460   -10.4340     5.2060 ha         1 W5E       0.111000
     43 H3           7.2950    -9.5600     8.2770 ha         1 W5E       0.099000
@<TRIPOS>BOND
     1     1     3 ar  
     2     1    15 ar  
     3     1    23 1   
     4     2    16 ar  
     5     2    17 ar  
     6     2    25 1   
     7     3    17 ar  
     8     3    30 1   
     9     4    20 ar  
    10     4    21 ar  
    11     4    42 1   
    12     5    21 ar  
    13     5    22 ar  
    14     5    43 1   
    15     6    20 ar  
    16     6    22 ar  
    17     6    31 1   
    18     7     8 ar  
    19     7    12 ar  
    20     7    32 1   
    21     8     9 ar  
    22     8    20 1   
    23     9    10 ar  
    24     9    33 1   
    25    10    11 ar  
    26    10    34 1   
    27    11    12 ar  
    28    11    23 1   
    29    12    13 1   
    30    13    14 2   
    31    13    18 1   
    32    14    23 1   
    33    14    35 1   
    34    15    16 ar  
    35    15    36 1   
    36    16    37 1   
    37    17    24 1   
    38    18    19 1   
    39    18    28 2   
    40    19    26 1   
    41    19    27 1   
    42    21    38 1   
    43    22    29 1   
    44    24    39 1   
    45    25    40 1   
    46    29    41 1   
@<TRIPOS>SUBSTRUCTURE
     1 W5E         1 TEMP              0 ****  ****    0 ROOT
