@<TRIPOS>MOLECULE
W5E
   43    46     1     0     0
SMALL
No Charge or Current Charge


@<TRIPOS>ATOM
      1 C10         12.5680   -16.4090     2.2900 ca         1 W5E       0.022800
      2 C13         14.9050   -16.4760     0.7230 ca         1 W5E       0.108100
      3 C15         13.4250   -17.5260     2.3500 ca         1 W5E      -0.163000
      4 C24          9.5770   -10.8760     6.1190 ca         1 W5E      -0.148000
      5 C26          7.6710   -10.0690     7.3960 ca         1 W5E      -0.222000
      6 C28          7.7040   -12.3540     6.5630 ca         1 W5E      -0.128000
      7 C01          8.9260   -14.1730     4.4330 ca         1 W5E      -0.003000
      8 C02          9.6680   -13.2500     5.2240 cp         1 W5E      -0.100000
      9 C03         11.0850   -13.3940     5.2810 ca         1 W5E      -0.091000
     10 C04         11.7440   -14.4210     4.5780 ca         1 W5E      -0.144000
     11 C05         10.9710   -15.3040     3.8140 ca         1 W5E      -0.055200
     12 C06          9.6060   -15.1940     3.7430 ca         1 W5E      -0.044800
     13 C07          9.1500   -16.2440     2.8500 cc         1 W5E      -0.165400
     14 C08         10.2890   -16.9200     2.4110 cd         1 W5E      -0.134100
     15 C11         12.8850   -15.3290     1.4420 ca         1 W5E      -0.106000
     16 C12         14.0530   -15.3620     0.6590 ca         1 W5E      -0.118000
     17 C14         14.5920   -17.5610     1.5680 ca         1 W5E       0.050100
     18 C18          7.7750   -16.5850     2.3790 c          1 W5E       0.473300
     19 C19          6.5270   -15.7290     2.9380 c          1 W5E       0.662000
     20 C23          8.9780   -12.1530     5.9740 cp         1 W5E       0.032000
     21 C25          8.9320    -9.8440     6.8210 ca         1 W5E      -0.081000
     22 C27          7.0600   -11.3240     7.2660 ca         1 W5E       0.136100
     23 N09         11.4120   -16.3830     3.0690 na         1 W5E      -0.009500
     24 O16         15.4280   -18.6460     1.6250 oh         1 W5E      -0.564100
     25 O17         16.0400   -16.5190    -0.0320 oh         1 W5E      -0.540100
     26 O20          6.0090   -16.0760     3.9980 o          1 W5E      -0.700500
     27 O21          6.1360   -14.7670     2.2800 o          1 W5E      -0.700500
     28 O22          7.5950   -17.5100     1.5770 o          1 W5E      -0.589100
     29 O29          5.8390   -11.5460     7.8270 oh         1 W5E      -0.529100
     30 H1          13.1760   -18.3570     3.0060 ha         1 W5E       0.133000
     31 H4           7.2170   -13.3220     6.4890 ha         1 W5E       0.147000
     32 H5           7.8510   -14.0660     4.3580 ha         1 W5E       0.165000
     33 H6          11.6770   -12.7120     5.8870 ha         1 W5E       0.098000
     34 H7          12.8250   -14.5280     4.6330 ha         1 W5E       0.106000
     35 H8          10.3770   -17.7220     1.6840 h4         1 W5E       0.220000
     36 H9          12.2260   -14.4650     1.3900 ha         1 W5E       0.139000
     37 H10         14.2960   -14.5280     0.0050 ha         1 W5E       0.128000
     38 H11          9.4090    -8.8710     6.9170 ha         1 W5E       0.098000
     39 H12         15.0590   -19.3000     2.2600 ho         1 W5E       0.478000
     40 H13         16.4670   -17.3810     0.1750 ho         1 W5E       0.478000
     41 H15          5.5520   -10.7200     8.2710 ho         1 W5E       0.452000
     42 H2          10.5470   -10.6780     5.6700 ha         1 W5E       0.111000
     43 H3           7.1770    -9.2670     7.9390 ha         1 W5E       0.099000
@<TRIPOS>BOND
     1     1     3 ar  
     2     1    15 ar  
     3     1    23 1   
     4     2    16 ar  
     5     2    17 ar  
     6     2    25 1   
     7     3    17 ar  
     8     3    30 1   
     9     4    20 ar  
    10     4    21 ar  
    11     4    42 1   
    12     5    21 ar  
    13     5    22 ar  
    14     5    43 1   
    15     6    20 ar  
    16     6    22 ar  
    17     6    31 1   
    18     7     8 ar  
    19     7    12 ar  
    20     7    32 1   
    21     8     9 ar  
    22     8    20 1   
    23     9    10 ar  
    24     9    33 1   
    25    10    11 ar  
    26    10    34 1   
    27    11    12 ar  
    28    11    23 1   
    29    12    13 1   
    30    13    14 2   
    31    13    18 1   
    32    14    23 1   
    33    14    35 1   
    34    15    16 ar  
    35    15    36 1   
    36    16    37 1   
    37    17    24 1   
    38    18    19 1   
    39    18    28 2   
    40    19    26 1   
    41    19    27 1   
    42    21    38 1   
    43    22    29 1   
    44    24    39 1   
    45    25    40 1   
    46    29    41 1   
@<TRIPOS>SUBSTRUCTURE
     1 W5E         1 TEMP              0 ****  ****    0 ROOT
