@<TRIPOS>MOLECULE
W5F
   52    54     1     0     0
SMALL
No Charge or Current Charge


@<TRIPOS>ATOM
      1 C06         96.9760   104.0850   102.3870 c3         1 W5F      -0.099400
      2 C07         96.1980   104.8600   103.4830 c3         1 W5F       0.224600
      3 C08         98.1860   103.2740   102.9140 c3         1 W5F       0.166800
      4 C09         97.0430   105.9670   104.1230 ca         1 W5F      -0.089300
      5 C10        100.2940   102.0770   102.4170 c3         1 W5F       0.018800
      6 C11         98.2540   101.5750   101.1020 c3         1 W5F       0.161100
      7 C12         97.8080   105.7370   105.2890 ca         1 W5F      -0.065000
      8 C13         97.0650   107.2470   103.5300 ca         1 W5F      -0.065000
      9 C14         94.7930   102.9770   104.3090 ca         1 W5F       0.173100
     10 C15         98.5780   106.7710   105.8490 ca         1 W5F      -0.154000
     11 C16         97.8350   108.2800   104.0930 ca         1 W5F      -0.154000
     12 C17         94.6830   101.9590   105.2660 ca         1 W5F      -0.175000
     13 C18         93.9060   102.9930   103.2130 ca         1 W5F      -0.175000
     14 C19         92.8170   100.9440   104.0310 cp         1 W5F      -0.090000
     15 C20         98.5890   108.0390   105.2500 ca         1 W5F       0.167000
     16 C21        101.3560   101.4840   101.4200 c          1 W5F       0.721000
     17 C22         93.7120   100.9520   105.1310 ca         1 W5F      -0.060500
     18 C23         92.9330   101.9870   103.0780 ca         1 W5F      -0.060500
     19 C24         91.7810    99.8720   103.8850 cp         1 W5F      -0.012000
     20 C25         92.0430    98.5390   104.2920 ca         1 W5F      -0.105000
     21 C26         90.5040   100.1560   103.3350 ca         1 W5F      -0.105000
     22 C27         91.0710    97.5320   104.1540 ca         1 W5F      -0.112500
     23 C28         89.5320    99.1500   103.1970 ca         1 W5F      -0.112500
     24 C29         89.8150    97.8370   103.6070 ca         1 W5F      -0.118000
     25 F01         99.3300   109.0320   105.7890 f          1 W5F      -0.187000
     26 N05         98.9990   102.6060   101.8650 n3         1 W5F      -0.678600
     27 O02         95.7680   103.9360   104.5060 os         1 W5F      -0.351100
     28 O03        101.4470   100.2660   101.3190 o          1 W5F      -0.729000
     29 O04        102.0710   102.2590   100.7960 o          1 W5F      -0.729000
     30 H1          97.3310   104.8030   101.6390 hc         1 W5F       0.056200
     31 H2          96.2820   103.4170   101.8690 hc         1 W5F       0.056200
     32 H3          95.3270   105.3460   103.0240 h1         1 W5F       0.038700
     33 H4          97.8270   102.5260   103.6340 h1         1 W5F       0.023700
     34 H5          98.8320   103.9660   103.4690 h1         1 W5F       0.023700
     35 H6         100.0740   101.2970   103.1590 h1         1 W5F       0.011200
     36 H7         100.8020   102.8830   102.9630 h1         1 W5F       0.011200
     37 H8          97.3860   102.0080   100.5880 h1         1 W5F       0.019033
     38 H9          98.8910   101.1220   100.3310 h1         1 W5F       0.019033
     39 H10         97.9000   100.7760   101.7680 h1         1 W5F       0.019033
     40 H11         97.8130   104.7570   105.7620 ha         1 W5F       0.123500
     41 H12         96.4840   107.4420   102.6300 ha         1 W5F       0.123500
     42 H13         99.1670   106.5910   106.7460 ha         1 W5F       0.126500
     43 H14         97.8490   109.2650   103.6320 ha         1 W5F       0.126500
     44 H15         95.3570   101.9480   106.1190 ha         1 W5F       0.124000
     45 H16         93.9500   103.7740   102.4600 ha         1 W5F       0.124000
     46 H17         93.6450   100.1810   105.8930 ha         1 W5F       0.109500
     47 H18         92.2710   102.0110   102.2160 ha         1 W5F       0.109500
     48 H19         93.0140    98.2780   104.7050 ha         1 W5F       0.114500
     49 H20         90.2590   101.1680   103.0240 ha         1 W5F       0.114500
     50 H21         91.2940    96.5150   104.4690 ha         1 W5F       0.107000
     51 H22         88.5580    99.3890   102.7760 ha         1 W5F       0.107000
     52 H23         89.0630    97.0590   103.5000 ha         1 W5F       0.106000
@<TRIPOS>BOND
     1     1     2 1   
     2     1     3 1   
     3     1    30 1   
     4     1    31 1   
     5     2     4 1   
     6     2    27 1   
     7     2    32 1   
     8     3    26 1   
     9     3    33 1   
    10     3    34 1   
    11     4     7 ar  
    12     4     8 ar  
    13     5    16 1   
    14     5    26 1   
    15     5    35 1   
    16     5    36 1   
    17     6    26 1   
    18     6    37 1   
    19     6    38 1   
    20     6    39 1   
    21     7    10 ar  
    22     7    40 1   
    23     8    11 ar  
    24     8    41 1   
    25     9    12 ar  
    26     9    13 ar  
    27     9    27 1   
    28    10    15 ar  
    29    10    42 1   
    30    11    15 ar  
    31    11    43 1   
    32    12    17 ar  
    33    12    44 1   
    34    13    18 ar  
    35    13    45 1   
    36    14    17 ar  
    37    14    18 ar  
    38    14    19 1   
    39    15    25 1   
    40    16    28 1   
    41    16    29 1   
    42    17    46 1   
    43    18    47 1   
    44    19    20 ar  
    45    19    21 ar  
    46    20    22 ar  
    47    20    48 1   
    48    21    23 ar  
    49    21    49 1   
    50    22    24 ar  
    51    22    50 1   
    52    23    24 ar  
    53    23    51 1   
    54    24    52 1   
@<TRIPOS>SUBSTRUCTURE
     1 W5F         1 TEMP              0 ****  ****    0 ROOT
