@<TRIPOS>MOLECULE
W5F
   52    54     1     0     0
SMALL
abcg2


@<TRIPOS>ATOM
      1 C06         97.0740   103.8920   102.3550 c3         1 W5F      -0.099400
      2 C07         96.2540   104.5670   103.4570 c3         1 W5F       0.224600
      3 C08         98.3820   103.2860   102.8470 c3         1 W5F       0.166800
      4 C09         97.0080   105.6820   104.1440 ca         1 W5F      -0.089300
      5 C10        100.5310   102.4530   102.2220 c3         1 W5F       0.018800
      6 C11         98.5740   101.5000   101.2560 c3         1 W5F       0.161100
      7 C12         97.5250   105.5700   105.4300 ca         1 W5F      -0.065000
      8 C13         97.2070   106.8720   103.4470 ca         1 W5F      -0.065000
      9 C14         94.8480   102.7780   104.2390 ca         1 W5F       0.173100
     10 C15         98.2200   106.6230   106.0130 ca         1 W5F      -0.154000
     11 C16         97.9000   107.9310   104.0110 ca         1 W5F      -0.154000
     12 C17         94.6640   101.8010   105.2200 ca         1 W5F      -0.175000
     13 C18         93.9780   102.8140   103.1520 ca         1 W5F      -0.175000
     14 C19         92.7360   100.9230   104.0420 cp         1 W5F      -0.090000
     15 C20         98.3940   107.7870   105.2940 ca         1 W5F       0.167000
     16 C21        101.5740   102.1630   101.1180 c          1 W5F       0.721000
     17 C22         93.6270   100.8950   105.1190 ca         1 W5F      -0.060500
     18 C23         92.9390   101.8970   103.0680 ca         1 W5F      -0.060500
     19 C24         91.6230    99.9590   103.9410 cp         1 W5F      -0.012000
     20 C25         91.7900    98.6250   104.3190 ca         1 W5F      -0.105000
     21 C26         90.3720   100.3590   103.4640 ca         1 W5F      -0.105000
     22 C27         90.7430    97.7210   104.2220 ca         1 W5F      -0.112500
     23 C28         89.3250    99.4540   103.3650 ca         1 W5F      -0.112500
     24 C29         89.5050    98.1300   103.7430 ca         1 W5F      -0.118000
     25 F01         99.0540   108.8120   105.8590 f          1 W5F      -0.187000
     26 N05         99.1760   102.7100   101.7750 n3         1 W5F      -0.678600
     27 O02         95.8660   103.6350   104.4520 os         1 W5F      -0.351100
     28 O03        102.6450   101.6760   101.5370 o          1 W5F      -0.729000
     29 O04        101.2970   102.4680    99.9450 o          1 W5F      -0.729000
     30 H1          97.2890   104.6430   101.5900 hc         1 W5F       0.056200
     31 H2          96.4460   103.1380   101.8730 hc         1 W5F       0.056200
     32 H3          95.3650   105.0130   102.9970 h1         1 W5F       0.038700
     33 H4          98.1830   102.5480   103.6430 h1         1 W5F       0.023700
     34 H5          98.9770   104.0800   103.3070 h1         1 W5F       0.023700
     35 H6         100.5700   101.6340   102.9630 h1         1 W5F       0.011200
     36 H7         100.8870   103.3430   102.7530 h1         1 W5F       0.011200
     37 H8          97.5900   101.6970   100.8290 h1         1 W5F       0.019033
     38 H9          99.1910   101.0900   100.4590 h1         1 W5F       0.019033
     39 H10         98.4510   100.7210   102.0270 h1         1 W5F       0.019033
     40 H11         97.3920   104.6640   106.0030 ha         1 W5F       0.123500
     41 H12         96.8070   106.9850   102.4460 ha         1 W5F       0.123500
     42 H13         98.6170   106.5320   107.0160 ha         1 W5F       0.126500
     43 H14         98.0440   108.8540   103.4650 ha         1 W5F       0.126500
     44 H15         95.3340   101.7680   106.0700 ha         1 W5F       0.124000
     45 H16         94.0910   103.5390   102.3580 ha         1 W5F       0.124000
     46 H17         93.4980   100.1630   105.9070 ha         1 W5F       0.109500
     47 H18         92.2880   101.9410   102.2040 ha         1 W5F       0.109500
     48 H19         92.7550    98.2830   104.6750 ha         1 W5F       0.114500
     49 H20         90.2080   101.3920   103.1860 ha         1 W5F       0.114500
     50 H21         90.8970    96.6900   104.5130 ha         1 W5F       0.107000
     51 H22         88.3630    99.7890   102.9980 ha         1 W5F       0.107000
     52 H23         88.6880    97.4250   103.6680 ha         1 W5F       0.106000
@<TRIPOS>BOND
     1     1     2 1   
     2     1     3 1   
     3     1    30 1   
     4     1    31 1   
     5     2     4 1   
     6     2    27 1   
     7     2    32 1   
     8     3    26 1   
     9     3    33 1   
    10     3    34 1   
    11     4     7 ar  
    12     4     8 ar  
    13     5    16 1   
    14     5    26 1   
    15     5    35 1   
    16     5    36 1   
    17     6    26 1   
    18     6    37 1   
    19     6    38 1   
    20     6    39 1   
    21     7    10 ar  
    22     7    40 1   
    23     8    11 ar  
    24     8    41 1   
    25     9    12 ar  
    26     9    13 ar  
    27     9    27 1   
    28    10    15 ar  
    29    10    42 1   
    30    11    15 ar  
    31    11    43 1   
    32    12    17 ar  
    33    12    44 1   
    34    13    18 ar  
    35    13    45 1   
    36    14    17 ar  
    37    14    18 ar  
    38    14    19 1   
    39    15    25 1   
    40    16    28 1   
    41    16    29 1   
    42    17    46 1   
    43    18    47 1   
    44    19    20 ar  
    45    19    21 ar  
    46    20    22 ar  
    47    20    48 1   
    48    21    23 ar  
    49    21    49 1   
    50    22    24 ar  
    51    22    50 1   
    52    23    24 ar  
    53    23    51 1   
    54    24    52 1   
@<TRIPOS>SUBSTRUCTURE
     1 W5F         1 TEMP              0 ****  ****    0 ROOT
