@<TRIPOS>MOLECULE
W5G
   33    36     1     0     0
SMALL
No Charge or Current Charge


@<TRIPOS>ATOM
      1 N12        -45.5220   -27.7440     6.6110 nb         1 W5G      -0.233000
      2 C13        -46.4500   -28.6060     6.1590 ca         1 W5G       0.140500
      3 C15        -48.2870   -29.9900     5.8950 cc         1 W5G      -0.183100
      4 C17        -46.3030   -29.2430     4.9540 ca         1 W5G      -0.244800
      5 C01        -42.1760   -31.6300     1.0570 cx         1 W5G      -0.119900
      6 C02        -43.2080   -32.3930     1.8590 cx         1 W5G      -0.119900
      7 C03        -43.5150   -30.9960     1.3660 cx         1 W5G      -0.150000
      8 C04        -44.5430   -30.8110     0.2360 c6         1 W5G      -0.041400
      9 C05        -45.9580   -30.6000     0.8230 c6         1 W5G      -0.103400
     10 C06        -45.9770   -29.4200     1.8250 c6         1 W5G       0.211800
     11 C08        -43.5900   -29.8400     2.3880 c6         1 W5G       0.246800
     12 C09        -45.1720   -28.9990     4.1550 ca         1 W5G       0.439900
     13 C11        -44.4510   -27.5580     5.8030 ca         1 W5G       0.178900
     14 C16        -47.4470   -30.1100     4.8030 cd         1 W5G      -0.206200
     15 N07        -44.9710   -29.6180     2.9030 nh         1 W5G      -0.756300
     16 N10        -44.2260   -28.1420     4.6010 nb         1 W5G      -0.306000
     17 N14        -47.6410   -29.0430     6.7210 na         1 W5G      -0.317400
     18 H151       -49.2290   -30.4750     6.1440 h4         1 W5G       0.215000
     19 H011       -41.9870   -31.9550     0.0370 hc         1 W5G       0.074200
     20 H012       -41.3000   -31.2590     1.5840 hc         1 W5G       0.074200
     21 H021       -43.7090   -33.2290     1.3760 hc         1 W5G       0.074200
     22 H022       -43.0250   -32.5310     2.9220 hc         1 W5G       0.074200
     23 H042       -44.5400   -31.6820    -0.4340 hc         1 W5G       0.043700
     24 H041       -44.2570   -29.9430    -0.3750 hc         1 W5G       0.043700
     25 H052       -46.6760   -30.4110     0.0130 hc         1 W5G       0.051200
     26 H051       -46.2890   -31.5160     1.3300 hc         1 W5G       0.051200
     27 H061       -45.7640   -28.4850     1.2840 h1         1 W5G       0.056200
     28 H062       -46.9900   -29.3230     2.2410 h1         1 W5G       0.056200
     29 H082       -42.9050   -30.0730     3.2180 h1         1 W5G       0.071700
     30 H081       -43.2130   -28.9260     1.9050 h1         1 W5G       0.071700
     31 H111       -43.6890   -26.8650     6.1570 h5         1 W5G       0.042100
     32 H161       -47.6220   -30.7810     3.9640 ha         1 W5G       0.201000
     33 H141       -47.9880   -28.7180     7.6180 hn         1 W5G       0.361000
@<TRIPOS>BOND
     1     1     2 ar  
     2     1    13 ar  
     3     2     4 ar  
     4     2    17 1   
     5     3    14 2   
     6     3    17 1   
     7     3    18 1   
     8     4    12 ar  
     9     4    14 1   
    10     5     6 1   
    11     5     7 1   
    12     5    19 1   
    13     5    20 1   
    14     6     7 1   
    15     6    21 1   
    16     6    22 1   
    17     7     8 1   
    18     7    11 1   
    19     8     9 1   
    20     8    23 1   
    21     8    24 1   
    22     9    10 1   
    23     9    25 1   
    24     9    26 1   
    25    10    15 1   
    26    10    27 1   
    27    10    28 1   
    28    11    15 1   
    29    11    29 1   
    30    11    30 1   
    31    12    15 1   
    32    12    16 ar  
    33    13    16 ar  
    34    13    31 1   
    35    14    32 1   
    36    17    33 1   
@<TRIPOS>SUBSTRUCTURE
     1 W5G         1 TEMP              0 ****  ****    0 ROOT
