@<TRIPOS>MOLECULE
W5G
   33    36     1     0     0
SMALL
bcc


@<TRIPOS>ATOM
      1 N12        -45.2010   -28.8520     6.6780 nb         1 W5G      -0.759000
      2 C13        -46.2860   -29.1500     5.9590 ca         1 W5G       0.468800
      3 C15        -48.3730   -29.7260     5.4650 cc         1 W5G      -0.133100
      4 C17        -46.3660   -29.2750     4.5580 ca         1 W5G      -0.375400
      5 C01        -42.1830   -31.2940     1.3670 cx         1 W5G      -0.119900
      6 C02        -43.0320   -31.6800     2.5460 cx         1 W5G      -0.119900
      7 C03        -43.5490   -30.7120     1.5250 cx         1 W5G      -0.150000
      8 C04        -44.6610   -31.1640     0.6030 c6         1 W5G      -0.041400
      9 C05        -46.0290   -30.8060     1.1820 c6         1 W5G      -0.103400
     10 C06        -46.0520   -29.3390     1.5920 c6         1 W5G       0.211800
     11 C08        -43.6740   -29.2610     1.9340 c6         1 W5G       0.246800
     12 C09        -45.1430   -29.0420     3.8730 ca         1 W5G       0.768200
     13 C11        -44.1360   -28.6890     5.9220 ca         1 W5G       0.704900
     14 C16        -47.7210   -29.6550     4.2710 cd         1 W5G      -0.156200
     15 N07        -44.9860   -29.0430     2.5290 nh         1 W5G      -0.756300
     16 N10        -44.0530   -28.7700     4.6020 nb         1 W5G      -0.832000
     17 N14        -47.5060   -29.4160     6.4780 na         1 W5G      -0.267100
     18 H151       -49.3990   -29.9780     5.6750 h4         1 W5G       0.165000
     19 H011       -42.0310   -32.0270     0.5830 hc         1 W5G       0.074200
     20 H012       -41.3260   -30.6540     1.5440 hc         1 W5G       0.074200
     21 H021       -43.4590   -32.6750     2.5610 hc         1 W5G       0.074200
     22 H022       -42.7520   -31.3020     3.5220 hc         1 W5G       0.074200
     23 H042       -44.5920   -32.2400     0.4260 hc         1 W5G       0.043700
     24 H041       -44.5380   -30.6790    -0.3700 hc         1 W5G       0.043700
     25 H052       -46.8160   -30.9930     0.4470 hc         1 W5G       0.051200
     26 H051       -46.2490   -31.4310     2.0530 hc         1 W5G       0.051200
     27 H061       -45.8880   -28.7120     0.7100 h1         1 W5G       0.056200
     28 H062       -47.0120   -29.0330     1.9920 h1         1 W5G       0.056200
     29 H082       -42.8990   -28.9750     2.6390 h1         1 W5G       0.071700
     30 H081       -43.5890   -28.6100     1.0580 h1         1 W5G       0.071700
     31 H111       -43.2080   -28.4570     6.4370 h5         1 W5G       0.042100
     32 H161       -48.1810   -29.8680     3.3220 ha         1 W5G       0.151000
     33 H141       -47.7300   -29.4060     7.4600 hn         1 W5G       0.310700
@<TRIPOS>BOND
     1     1     2 ar  
     2     1    13 ar  
     3     2     4 ar  
     4     2    17 1   
     5     3    14 2   
     6     3    17 1   
     7     3    18 1   
     8     4    12 ar  
     9     4    14 1   
    10     5     6 1   
    11     5     7 1   
    12     5    19 1   
    13     5    20 1   
    14     6     7 1   
    15     6    21 1   
    16     6    22 1   
    17     7     8 1   
    18     7    11 1   
    19     8     9 1   
    20     8    23 1   
    21     8    24 1   
    22     9    10 1   
    23     9    25 1   
    24     9    26 1   
    25    10    15 1   
    26    10    27 1   
    27    10    28 1   
    28    11    15 1   
    29    11    29 1   
    30    11    30 1   
    31    12    15 1   
    32    12    16 ar  
    33    13    16 ar  
    34    13    31 1   
    35    14    32 1   
    36    17    33 1   
@<TRIPOS>SUBSTRUCTURE
     1 W5G         1 TEMP              0 ****  ****    0 ROOT
