@<TRIPOS>MOLECULE
W5H
   18    18     1     0     0
SMALL
No Charge or Current Charge


@<TRIPOS>ATOM
      1 O1          25.1000    -2.6770    18.0480 o          1 W5H      -0.729500
      2 C1          28.5000    -1.7300    21.3870 cc         1 W5H      -0.238000
      3 C5          27.2350    -3.6510    18.4130 c3         1 W5H      -0.168100
      4 C6          26.2320    -2.8080    17.6060 c          1 W5H       0.711000
      5 C4          27.9900    -2.8330    19.4370 cc         1 W5H      -0.065300
      6 C3          29.2390    -2.2820    19.3310 cd         1 W5H      -0.222000
      7 C2          29.5510    -1.6070    20.5230 cd         1 W5H      -0.187000
      8 O           26.6390    -2.2170    16.6160 o          1 W5H      -0.729500
      9 N           27.5340    -2.4900    20.7200 na         1 W5H       0.025000
     10 C           26.2340    -2.8670    21.2980 c3         1 W5H       0.065900
     11 H2          26.7020    -4.4360    18.9630 hc         1 W5H       0.035700
     12 H3          27.9950    -4.0560    17.7340 hc         1 W5H       0.035700
     13 H4          29.8830    -2.3570    18.4610 ha         1 W5H       0.115000
     14 H5          30.4750    -1.0730    20.7270 ha         1 W5H       0.103000
     15 H7          26.2060    -2.5950    22.3600 h1         1 W5H       0.043700
     16 H8          25.4310    -2.3390    20.7700 h1         1 W5H       0.043700
     17 H9          26.0860    -3.9490    21.2020 h1         1 W5H       0.043700
     18 H1          28.3600    -1.3550    22.3930 h4         1 W5H       0.118000
@<TRIPOS>BOND
     1     1     4 1   
     2     2     7 2   
     3     2     9 1   
     4     2    18 1   
     5     3     4 1   
     6     3     5 1   
     7     3    11 1   
     8     3    12 1   
     9     4     8 1   
    10     5     6 2   
    11     5     9 1   
    12     6     7 1   
    13     6    13 1   
    14     7    14 1   
    15     9    10 1   
    16    10    15 1   
    17    10    16 1   
    18    10    17 1   
@<TRIPOS>SUBSTRUCTURE
     1 W5H         1 TEMP              0 ****  ****    0 ROOT
