@<TRIPOS>MOLECULE
W5H
   18    18     1     0     0
SMALL
abcg2


@<TRIPOS>ATOM
      1 O1          25.1880    -3.6080    17.2720 o          1 W5H      -0.729500
      2 C1          28.5490    -1.6940    21.3080 cc         1 W5H      -0.238000
      3 C5          27.2220    -3.6570    18.5140 c3         1 W5H      -0.168100
      4 C6          26.0750    -2.8870    17.7940 c          1 W5H       0.711000
      5 C4          28.0590    -2.8670    19.4540 cc         1 W5H      -0.065300
      6 C3          29.3550    -2.4020    19.3300 cd         1 W5H      -0.222000
      7 C2          29.6650    -1.6580    20.5030 cd         1 W5H      -0.187000
      8 O           26.1330    -1.6340    17.7630 o          1 W5H      -0.729500
      9 N           27.5820    -2.4310    20.6680 na         1 W5H       0.025000
     10 C           26.2480    -2.6760    21.1830 c3         1 W5H       0.065900
     11 H2          26.7750    -4.5230    19.0100 hc         1 W5H       0.035700
     12 H3          27.8670    -4.0560    17.7270 hc         1 W5H       0.035700
     13 H4          29.9990    -2.5790    18.4830 ha         1 W5H       0.115000
     14 H5          30.5950    -1.1630    20.7330 ha         1 W5H       0.103000
     15 H7          26.1880    -2.2890    22.1980 h1         1 W5H       0.043700
     16 H8          25.4970    -2.1810    20.5670 h1         1 W5H       0.043700
     17 H9          26.0350    -3.7460    21.2030 h1         1 W5H       0.043700
     18 H1          28.3600    -1.2700    22.2800 h4         1 W5H       0.118000
@<TRIPOS>BOND
     1     1     4 1   
     2     2     7 2   
     3     2     9 1   
     4     2    18 1   
     5     3     4 1   
     6     3     5 1   
     7     3    11 1   
     8     3    12 1   
     9     4     8 1   
    10     5     6 2   
    11     5     9 1   
    12     6     7 1   
    13     6    13 1   
    14     7    14 1   
    15     9    10 1   
    16    10    15 1   
    17    10    16 1   
    18    10    17 1   
@<TRIPOS>SUBSTRUCTURE
     1 W5H         1 TEMP              0 ****  ****    0 ROOT
