@<TRIPOS>MOLECULE
W5J
   27    28     1     0     0
SMALL
bcc


@<TRIPOS>ATOM
      1 C10        -44.2960   -28.7030     6.3670 ca         1 W5J       0.713900
      2 C15        -47.9200   -29.3850     4.6670 cc         1 W5J      -0.128200
      3 C01        -46.2850   -29.1400     2.0910 c3         1 W5J       0.215100
      4 C03        -43.8380   -29.2600     2.3460 c3         1 W5J       0.243800
      5 C04        -43.7090   -30.5180     1.4950 c3         1 W5J      -0.232400
      6 C05        -43.9810   -31.8110     2.2880 c          1 W5J       0.927600
      7 C08        -45.2910   -29.0450     4.3130 ca         1 W5J       0.796200
      8 C12        -46.4820   -28.9580     6.3750 ca         1 W5J       0.474800
      9 C14        -48.6040   -29.3470     5.8440 cd         1 W5J      -0.173100
     10 C16        -46.5430   -29.1270     4.9810 ca         1 W5J      -0.383400
     11 N02        -45.1450   -29.1470     2.9780 nh         1 W5J      -0.741300
     12 N09        -44.1930   -28.8410     5.0520 nb         1 W5J      -0.816000
     13 N11        -45.3850   -28.7370     7.1060 nb         1 W5J      -0.805000
     14 N13        -47.7340   -29.0840     6.8700 na         1 W5J      -0.278100
     15 O06        -43.3350   -31.9540     3.3470 o          1 W5J      -0.837800
     16 O07        -44.8120   -32.6080     1.8090 o          1 W5J      -0.837800
     17 H101       -43.3610   -28.5380     6.8940 h5         1 W5J       0.028100
     18 H151       -48.3650   -29.5820     3.7080 ha         1 W5J       0.149000
     19 H013       -47.0120   -28.3840     2.3860 h1         1 W5J       0.036700
     20 H012       -45.9470   -28.8820     1.0900 h1         1 W5J       0.036700
     21 H011       -46.7870   -30.1080     2.0330 h1         1 W5J       0.036700
     22 H031       -43.0830   -29.2590     3.1240 h1         1 W5J       0.044200
     23 H032       -43.6690   -28.3740     1.7250 h1         1 W5J       0.044200
     24 H042       -44.3570   -30.4630     0.6180 hc         1 W5J       0.021700
     25 H041       -42.6820   -30.5400     1.1130 hc         1 W5J       0.021700
     26 H141       -49.6550   -29.4890     6.0360 h4         1 W5J       0.149000
     27 H131       -47.9780   -29.0160     7.8450 hn         1 W5J       0.294700
@<TRIPOS>BOND
     1     1    12 ar  
     2     1    13 ar  
     3     1    17 1   
     4     2     9 2   
     5     2    10 1   
     6     2    18 1   
     7     3    11 1   
     8     3    19 1   
     9     3    20 1   
    10     3    21 1   
    11     4     5 1   
    12     4    11 1   
    13     4    22 1   
    14     4    23 1   
    15     5     6 1   
    16     5    24 1   
    17     5    25 1   
    18     6    15 1   
    19     6    16 1   
    20     7    10 ar  
    21     7    11 1   
    22     7    12 ar  
    23     8    10 ar  
    24     8    13 ar  
    25     8    14 1   
    26     9    14 1   
    27     9    26 1   
    28    14    27 1   
@<TRIPOS>SUBSTRUCTURE
     1 W5J         1 TEMP              0 ****  ****    0 ROOT
