@<TRIPOS>MOLECULE
W5J
   27    28     1     0     0
SMALL
No Charge or Current Charge


@<TRIPOS>ATOM
      1 C10        -44.4030   -28.0870     6.3750 ca         1 W5J       0.187900
      2 C15        -47.7130   -29.7560     4.7120 cc         1 W5J      -0.178200
      3 C01        -46.1570   -28.7760     2.0670 c3         1 W5J       0.215100
      4 C03        -43.7880   -29.5610     2.4780 c3         1 W5J       0.243800
      5 C04        -43.7960   -30.6800     1.4150 c3         1 W5J      -0.232400
      6 C05        -44.1900   -32.0110     2.0620 c          1 W5J       0.717000
      7 C08        -45.2750   -28.9080     4.4080 ca         1 W5J       0.467900
      8 C12        -46.5600   -28.8460     6.4460 ca         1 W5J       0.146500
      9 C14        -48.5300   -29.7650     5.8300 cd         1 W5J      -0.223100
     10 C16        -46.4690   -29.1600     5.1130 ca         1 W5J      -0.252800
     11 N02        -45.1130   -29.1870     3.0300 nh         1 W5J      -0.741300
     12 N09        -44.2260   -28.3640     5.0630 nb         1 W5J      -0.290000
     13 N11        -45.5230   -28.2990     7.1040 nb         1 W5J      -0.279000
     14 N13        -47.8180   -29.1930     6.9130 na         1 W5J      -0.328400
     15 O06        -43.3120   -32.6570     2.6150 o          1 W5J      -0.732500
     16 O07        -45.3510   -32.3820     1.9770 o          1 W5J      -0.732500
     17 H101       -43.5560   -27.6470     6.8980 h5         1 W5J       0.028100
     18 H151       -47.9780   -30.1520     3.7330 ha         1 W5J       0.199000
     19 H013       -46.8590   -28.0690     2.5310 h1         1 W5J       0.036700
     20 H012       -45.7090   -28.2740     1.1990 h1         1 W5J       0.036700
     21 H011       -46.7230   -29.6490     1.7160 h1         1 W5J       0.036700
     22 H031       -43.1210   -29.8870     3.2890 h1         1 W5J       0.044200
     23 H032       -43.3280   -28.6680     2.0340 h1         1 W5J       0.044200
     24 H042       -44.4970   -30.3910     0.6240 hc         1 W5J       0.021700
     25 H041       -42.7550   -30.7280     1.0730 hc         1 W5J       0.021700
     26 H141       -49.5470   -30.1370     5.9360 h4         1 W5J       0.199000
     27 H131       -48.1530   -29.0660     7.8630 hn         1 W5J       0.345000
@<TRIPOS>BOND
     1     1    12 ar  
     2     1    13 ar  
     3     1    17 1   
     4     2     9 2   
     5     2    10 1   
     6     2    18 1   
     7     3    11 1   
     8     3    19 1   
     9     3    20 1   
    10     3    21 1   
    11     4     5 1   
    12     4    11 1   
    13     4    22 1   
    14     4    23 1   
    15     5     6 1   
    16     5    24 1   
    17     5    25 1   
    18     6    15 1   
    19     6    16 1   
    20     7    10 ar  
    21     7    11 1   
    22     7    12 ar  
    23     8    10 ar  
    24     8    13 ar  
    25     8    14 1   
    26     9    14 1   
    27     9    26 1   
    28    14    27 1   
@<TRIPOS>SUBSTRUCTURE
     1 W5J         1 TEMP              0 ****  ****    0 ROOT
