@<TRIPOS>MOLECULE
W5L
   28    28     1     0     0
SMALL
abcg2


@<TRIPOS>ATOM
      1 C7          -4.4820    16.1270   -32.9090 c3         1 W5L       0.125600
      2 C8          -5.1510    17.4680   -33.1840 c3         1 W5L       0.177300
      3 C9          -6.0060    17.4750   -34.4450 c3         1 W5L       0.160800
      4 O1          -5.9760    17.8060   -32.0660 oh         1 W5L      -0.641000
      5 C1          -1.3270    13.2790   -35.2020 ca         1 W5L      -0.027300
      6 C5          -2.2110    12.5740   -33.0490 ca         1 W5L      -0.061000
      7 C6          -1.4030    12.3580   -34.1510 ca         1 W5L       0.086000
      8 C4          -2.9780    13.7320   -32.9580 ca         1 W5L      -0.190000
      9 C3          -2.9200    14.6660   -33.9900 ca         1 W5L       0.146100
     10 C2          -2.1000    14.4300   -35.0950 ca         1 W5L      -0.143000
     11 C           -0.4530    13.0550   -36.4020 c3         1 W5L      -0.047800
     12 O           -3.6220    15.8300   -34.0100 os         1 W5L      -0.357100
     13 N           -7.0000    16.3950   -34.4750 n8         1 W5L      -0.994200
     14 H1          -5.2380    15.3460   -32.7930 h1         1 W5L       0.048700
     15 H2          -3.8990    16.1880   -31.9850 h1         1 W5L       0.048700
     16 H3          -4.3700    18.2270   -33.3130 h1         1 W5L       0.039700
     17 H4          -6.5360    18.4290   -34.4720 h1         1 W5L       0.043700
     18 H5          -5.3280    17.4580   -35.3060 h1         1 W5L       0.043700
     19 H6          -5.4090    17.9400   -31.2960 ho         1 W5L       0.436000
     20 H7          -2.2460    11.8420   -32.2540 ha         1 W5L       0.129000
     21 H8          -3.6030    13.8840   -32.0910 ha         1 W5L       0.124000
     22 H9          -2.0710    15.1690   -35.8860 ha         1 W5L       0.129000
     23 H10          0.5970    12.9680   -36.1100 hc         1 W5L       0.051700
     24 H11         -0.7180    12.1270   -36.9130 hc         1 W5L       0.051700
     25 H12         -0.5490    13.8800   -37.1050 hc         1 W5L       0.051700
     26 H13         -7.7000    16.6030   -35.1780 hn         1 W5L       0.395500
     27 H14         -6.5630    15.5260   -34.7670 hn         1 W5L       0.395500
     28 CL          -0.4500    10.8820   -34.2160 cl         1 W5L      -0.219000
@<TRIPOS>BOND
     1     1     2 1   
     2     1    12 1   
     3     1    14 1   
     4     1    15 1   
     5     2     3 1   
     6     2     4 1   
     7     2    16 1   
     8     3    13 1   
     9     3    17 1   
    10     3    18 1   
    11     4    19 1   
    12     5     7 ar  
    13     5    10 ar  
    14     5    11 1   
    15     6     7 ar  
    16     6     8 ar  
    17     6    20 1   
    18     7    28 1   
    19     8     9 ar  
    20     8    21 1   
    21     9    10 ar  
    22     9    12 1   
    23    10    22 1   
    24    11    23 1   
    25    11    24 1   
    26    11    25 1   
    27    13    26 1   
    28    13    27 1   
@<TRIPOS>SUBSTRUCTURE
     1 W5L         1 TEMP              0 ****  ****    0 ROOT
