@<TRIPOS>MOLECULE
W5L
   28    28     1     0     0
SMALL
No Charge or Current Charge


@<TRIPOS>ATOM
      1 C7          -4.5240    16.1150   -32.8760 c3         1 W5L       0.125600
      2 C8          -5.1890    17.4900   -33.1600 c3         1 W5L       0.177300
      3 C9          -6.0630    17.5030   -34.4610 c3         1 W5L       0.160800
      4 O1          -5.9720    17.9040   -32.0190 oh         1 W5L      -0.641000
      5 C1          -1.2700    13.2590   -35.2070 ca         1 W5L      -0.027300
      6 C5          -2.1680    12.5060   -33.0640 ca         1 W5L      -0.061000
      7 C6          -1.3330    12.2970   -34.1750 ca         1 W5L       0.086000
      8 C4          -2.9490    13.6720   -32.9710 ca         1 W5L      -0.190000
      9 C3          -2.8920    14.6380   -33.9980 ca         1 W5L       0.146100
     10 C2          -2.0560    14.4250   -35.1060 ca         1 W5L      -0.143000
     11 C           -0.3710    13.0540   -36.4210 c3         1 W5L      -0.047800
     12 O           -3.6330    15.8010   -33.9650 os         1 W5L      -0.357100
     13 N           -7.2410    16.5860   -34.4500 n8         1 W5L      -0.994200
     14 H1          -5.2980    15.3440   -32.7710 h1         1 W5L       0.048700
     15 H2          -3.9630    16.1740   -31.9330 h1         1 W5L       0.048700
     16 H3          -4.3780    18.2150   -33.3130 h1         1 W5L       0.039700
     17 H4          -6.4260    18.5270   -34.6260 h1         1 W5L       0.043700
     18 H5          -5.4280    17.2420   -35.3190 h1         1 W5L       0.043700
     19 H6          -5.3440    18.1010   -31.2900 ho         1 W5L       0.436000
     20 H7          -2.2100    11.7600   -32.2740 ha         1 W5L       0.129000
     21 H8          -3.5850    13.8060   -32.1010 ha         1 W5L       0.124000
     22 H9          -2.0200    15.1760   -35.8910 ha         1 W5L       0.129000
     23 H10          0.6800    12.9630   -36.1210 hc         1 W5L       0.051700
     24 H11         -0.6460    12.1430   -36.9660 hc         1 W5L       0.051700
     25 H12         -0.4400    13.8910   -37.1260 hc         1 W5L       0.051700
     26 H13         -7.7120    16.6370   -35.3620 hn         1 W5L       0.395500
     27 H14         -6.9090    15.6170   -34.4040 hn         1 W5L       0.395500
     28 Cl          -0.3720    10.8190   -34.2480 cl         1 W5L      -0.219000
@<TRIPOS>BOND
     1     1     2 1   
     2     1    12 1   
     3     1    14 1   
     4     1    15 1   
     5     2     3 1   
     6     2     4 1   
     7     2    16 1   
     8     3    13 1   
     9     3    17 1   
    10     3    18 1   
    11     4    19 1   
    12     5     7 ar  
    13     5    10 ar  
    14     5    11 1   
    15     6     7 ar  
    16     6     8 ar  
    17     6    20 1   
    18     7    28 1   
    19     8     9 ar  
    20     8    21 1   
    21     9    10 ar  
    22     9    12 1   
    23    10    22 1   
    24    11    23 1   
    25    11    24 1   
    26    11    25 1   
    27    13    26 1   
    28    13    27 1   
@<TRIPOS>SUBSTRUCTURE
     1 W5L         1 TEMP              0 ****  ****    0 ROOT
