@<TRIPOS>MOLECULE
W5M
   20    21     1     0     0
SMALL
No Charge or Current Charge


@<TRIPOS>ATOM
      1 C01        -45.4340   -29.2020     2.0460 c3         1 W5M       0.071900
      2 C03        -47.7870   -28.8270     3.0420 cc         1 W5M       0.387700
      3 C05        -47.2750   -29.0830     5.1230 ca         1 W5M      -0.142600
      4 C06        -47.2460   -29.1920     6.5280 ca         1 W5M       0.484900
      5 C09        -45.0200   -29.5990     6.4160 ca         1 W5M       0.420900
      6 C12        -46.0930   -29.2560     4.4460 ca         1 W5M       0.165500
      7 N02        -46.4200   -29.0950     3.1320 na         1 W5M      -0.285300
      8 N04        -48.3520   -28.8110     4.2660 nd         1 W5M      -0.542100
      9 N08        -46.1080   -29.4490     7.1870 nb         1 W5M      -0.357000
     10 N10        -43.8690   -29.8580     7.0740 nv         1 W5M      -1.043900
     11 N11        -44.9330   -29.5190     5.0760 nb         1 W5M      -0.290000
     12 H012       -44.6500   -28.4460     2.1830 h1         1 W5M       0.054367
     13 H013       -44.9790   -30.2000     2.0560 h1         1 W5M       0.054367
     14 H011       -45.9250   -29.0390     1.0780 h1         1 W5M       0.054367
     15 H031       -48.2900   -28.6600     2.0960 h5         1 W5M       0.062800
     16 H072       -48.2190   -28.8200     8.2790 hn         1 W5M       0.505000
     17 H071       -49.1650   -28.6170     6.8450 hn         1 W5M       0.505000
     18 H101       -42.9930   -29.7560     6.5690 hn         1 W5M       0.481500
     19 H102       -43.8420   -29.7070     8.0790 hn         1 W5M       0.481500
     20 N07        -48.3550   -29.0340     7.2950 nv         1 W5M      -1.067900
@<TRIPOS>BOND
     1     1     7 1   
     2     1    12 1   
     3     1    13 1   
     4     1    14 1   
     5     2     7 1   
     6     2     8 2   
     7     2    15 1   
     8     3     4 ar  
     9     3     6 ar  
    10     3     8 1   
    11     4     9 ar  
    12     4    20 1   
    13     5     9 ar  
    14     5    10 1   
    15     5    11 ar  
    16     6     7 1   
    17     6    11 ar  
    18    10    18 1   
    19    10    19 1   
    20    16    20 1   
    21    17    20 1   
@<TRIPOS>SUBSTRUCTURE
     1 W5M         1 TEMP              0 ****  ****    0 ROOT
