@<TRIPOS>MOLECULE
W5M
   20    21     1     0     0
SMALL
bcc


@<TRIPOS>ATOM
      1 C01        -45.4540   -29.2520     2.0600 c3         1 W5M       0.042600
      2 C03        -47.7260   -28.8710     3.0750 cc         1 W5M       0.387700
      3 C05        -47.3080   -29.0530     5.1340 ca         1 W5M      -0.273200
      4 C06        -47.2650   -29.1270     6.5390 ca         1 W5M       0.813200
      5 C09        -44.9970   -29.5230     6.3740 ca         1 W5M       0.946900
      6 C12        -46.0960   -29.2330     4.4840 ca         1 W5M       0.493800
      7 N02        -46.3800   -29.1090     3.1590 na         1 W5M      -0.256000
      8 N04        -48.3180   -28.8260     4.2320 nd         1 W5M      -0.542100
      9 N08        -46.0950   -29.3610     7.1300 nb         1 W5M      -0.883000
     10 N10        -43.8540   -29.8100     7.0510 nv         1 W5M      -0.933500
     11 N11        -44.9150   -29.4710     5.0460 nb         1 W5M      -0.816000
     12 H012       -44.4670   -28.9240     2.3760 h1         1 W5M       0.054367
     13 H013       -45.3910   -30.2880     1.7290 h1         1 W5M       0.054367
     14 H011       -45.7780   -28.6330     1.2280 h1         1 W5M       0.054367
     15 H031       -48.2070   -28.7300     2.1190 h5         1 W5M       0.062800
     16 H072       -48.2820   -28.9810     8.2980 hn         1 W5M       0.449800
     17 H071       -49.2420   -28.7450     6.8850 hn         1 W5M       0.449800
     18 H101       -42.9850   -29.6660     6.5660 hn         1 W5M       0.426300
     19 H102       -43.8390   -29.5910     8.0330 hn         1 W5M       0.426300
     20 N07        -48.3560   -28.9770     7.2960 nv         1 W5M      -0.957500
@<TRIPOS>BOND
     1     1     7 1   
     2     1    12 1   
     3     1    13 1   
     4     1    14 1   
     5     2     7 1   
     6     2     8 2   
     7     2    15 1   
     8     3     4 ar  
     9     3     6 ar  
    10     3     8 1   
    11     4     9 ar  
    12     4    20 1   
    13     5     9 ar  
    14     5    10 1   
    15     5    11 ar  
    16     6     7 1   
    17     6    11 ar  
    18    10    18 1   
    19    10    19 1   
    20    16    20 1   
    21    17    20 1   
@<TRIPOS>SUBSTRUCTURE
     1 W5M         1 TEMP              0 ****  ****    0 ROOT
