@<TRIPOS>MOLECULE
W5N
   70    72     1     0     0
SMALL
abcg2


@<TRIPOS>ATOM
      1 O3         -29.6140    23.2780    -3.2630 oh         1 W5N      -0.663000
      2 O5         -29.5300    21.9310     2.8920 o          1 W5N      -0.548000
      3 C3         -28.7680    21.5190    -1.7390 c6         1 W5N      -0.061700
      4 C4         -27.4470    21.2320    -2.4400 cx         1 W5N       0.126000
      5 C5         -26.7540    22.3840    -3.1300 c3         1 W5N      -0.077100
      6 C6         -27.1030    19.8750    -2.9090 cx         1 W5N       0.088300
      7 C7         -27.9140    18.6050    -2.7740 c3         1 W5N      -0.031200
      8 C2         -28.6040    22.4930    -0.5600 c6         1 W5N       0.159300
      9 N1         -30.0090    19.7760     2.3680 ns         1 W5N      -0.498900
     10 O1         -27.5500    22.0700     0.2650 os         1 W5N      -0.430000
     11 O2         -26.5510    20.3910    -1.7160 op         1 W5N      -0.424000
     12 C8         -28.3120    18.0430    -4.1050 c2         1 W5N      -0.220200
     13 C9         -29.4800    17.5040    -4.4600 c2         1 W5N      -0.114400
     14 C10        -29.6880    16.9600    -5.8440 c3         1 W5N      -0.056400
     15 C11        -30.6760    17.3740    -3.5630 c3         1 W5N      -0.056400
     16 C12        -29.9030    22.0160    -2.6790 c6         1 W5N       0.197000
     17 C13        -30.1010    21.0660    -3.8480 c3         1 W5N      -0.085100
     18 C14        -31.2010    22.0950    -1.8630 c6         1 W5N      -0.107400
     19 C15        -31.0740    22.9950    -0.6400 c6         1 W5N      -0.084400
     20 C16        -29.9040    22.6040     0.2440 c6         1 W5N       0.160300
     21 O4         -30.1900    21.3260     0.8130 os         1 W5N      -0.466100
     22 C17        -29.8640    21.0820     2.0900 c          1 W5N       0.655100
     23 C18        -29.7350    19.2110     3.6730 c6         1 W5N       0.127700
     24 C19        -30.6170    17.9870     3.8970 c6         1 W5N      -0.091900
     25 C20        -30.3530    17.3650     5.2630 c6         1 W5N      -0.072900
     26 C21        -28.8840    16.9950     5.4380 c6         1 W5N       0.160500
     27 N2         -28.6660    16.4610     6.7750 n8         1 W5N      -0.996200
     28 C22        -28.0120    18.2250     5.2200 c6         1 W5N      -0.072900
     29 C23        -28.2610    18.8520     3.8520 c6         1 W5N      -0.091900
     30 H22        -29.7170    23.9810    -2.6150 ho         1 W5N       0.440000
     31 H5         -29.1220    20.5700    -1.3230 hc         1 W5N       0.079700
     32 H7         -26.6660    23.2540    -2.4780 hc         1 W5N       0.047700
     33 H8         -25.7480    22.0910    -3.4330 hc         1 W5N       0.047700
     34 H6         -27.2960    22.6940    -4.0210 hc         1 W5N       0.047700
     35 H9         -26.3980    19.8340    -3.7440 h1         1 W5N       0.074700
     36 H11        -28.7670    18.7420    -2.1100 hc         1 W5N       0.059200
     37 H10        -27.2620    17.8780    -2.2730 hc         1 W5N       0.059200
     38 H4         -28.3810    23.4990    -0.9490 h1         1 W5N       0.036700
     39 H28        -30.1970    19.1420     1.6060 hn         1 W5N       0.320500
     40 H1         -26.1060    22.6680     1.5490 h1         1 W5N       0.033367
     41 H2         -26.5270    23.8780     0.3240 h1         1 W5N       0.033367
     42 H3         -27.6040    23.5910     1.7030 h1         1 W5N       0.033367
     43 H12        -27.5260    18.0600    -4.8560 ha         1 W5N       0.167000
     44 H15        -28.7970    17.0600    -6.4640 hc         1 W5N       0.039200
     45 H13        -29.9600    15.9020    -5.8120 hc         1 W5N       0.039200
     46 H14        -30.5100    17.4770    -6.3460 hc         1 W5N       0.039200
     47 H17        -30.5290    17.7910    -2.5680 hc         1 W5N       0.039200
     48 H18        -31.5430    17.8680    -4.0090 hc         1 W5N       0.039200
     49 H16        -30.9480    16.3220    -3.4430 hc         1 W5N       0.039200
     50 H19        -30.3080    20.0580    -3.4940 hc         1 W5N       0.047700
     51 H21        -30.9470    21.3900    -4.4560 hc         1 W5N       0.047700
     52 H20        -29.2210    21.0190    -4.4900 hc         1 W5N       0.047700
     53 H23        -32.0060    22.4590    -2.5080 hc         1 W5N       0.058200
     54 H24        -31.4840    21.0870    -1.5510 hc         1 W5N       0.058200
     55 H25        -30.9440    24.0420    -0.9320 hc         1 W5N       0.053700
     56 H26        -31.9970    22.9770    -0.0560 hc         1 W5N       0.053700
     57 H27        -29.7880    23.3440     1.0380 h1         1 W5N       0.077700
     58 H29        -30.0010    19.9630     4.4210 h1         1 W5N       0.078700
     59 H31        -31.6690    18.2680     3.8070 hc         1 W5N       0.048450
     60 H30        -30.4170    17.2500     3.1110 hc         1 W5N       0.048450
     61 H32        -30.6330    18.0720     6.0510 hc         1 W5N       0.050700
     62 H33        -30.9820    16.4800     5.3930 hc         1 W5N       0.050700
     63 H34        -28.6320    16.2670     4.6480 h1         1 W5N       0.012700
     64 H37        -29.2160    15.6190     6.8940 hn         1 W5N       0.393000
     65 H35        -27.7000    16.1680     6.8650 hn         1 W5N       0.393000
     66 H39        -26.9560    17.9590     5.3200 hc         1 W5N       0.050700
     67 H38        -28.2280    18.9540     6.0090 hc         1 W5N       0.050700
     68 H40        -27.9690    18.1510     3.0630 hc         1 W5N       0.048450
     69 H41        -27.6440    19.7450     3.7280 hc         1 W5N       0.048450
     70 C1         -26.9320    23.1060     0.9890 c3         1 W5N       0.141900
@<TRIPOS>BOND
     1     1    16 1   
     2     1    30 1   
     3     2    22 2   
     4     3     4 1   
     5     3     8 1   
     6     3    16 1   
     7     3    31 1   
     8     4     5 1   
     9     4     6 1   
    10     4    11 1   
    11     5    32 1   
    12     5    33 1   
    13     5    34 1   
    14     6     7 1   
    15     6    11 1   
    16     6    35 1   
    17     7    12 1   
    18     7    36 1   
    19     7    37 1   
    20     8    10 1   
    21     8    20 1   
    22     8    38 1   
    23     9    22 1   
    24     9    23 1   
    25     9    39 1   
    26    10    70 1   
    27    12    13 2   
    28    12    43 1   
    29    13    14 1   
    30    13    15 1   
    31    14    44 1   
    32    14    45 1   
    33    14    46 1   
    34    15    47 1   
    35    15    48 1   
    36    15    49 1   
    37    16    17 1   
    38    16    18 1   
    39    17    50 1   
    40    17    51 1   
    41    17    52 1   
    42    18    19 1   
    43    18    53 1   
    44    18    54 1   
    45    19    20 1   
    46    19    55 1   
    47    19    56 1   
    48    20    21 1   
    49    20    57 1   
    50    21    22 1   
    51    23    24 1   
    52    23    29 1   
    53    23    58 1   
    54    24    25 1   
    55    24    59 1   
    56    24    60 1   
    57    25    26 1   
    58    25    61 1   
    59    25    62 1   
    60    26    27 1   
    61    26    28 1   
    62    26    63 1   
    63    27    64 1   
    64    27    65 1   
    65    28    29 1   
    66    28    66 1   
    67    28    67 1   
    68    29    68 1   
    69    29    69 1   
    70    40    70 1   
    71    41    70 1   
    72    42    70 1   
@<TRIPOS>SUBSTRUCTURE
     1 W5N         1 TEMP              0 ****  ****    0 ROOT
