@<TRIPOS>MOLECULE
W5N
   70    72     1     0     0
SMALL
No Charge or Current Charge


@<TRIPOS>ATOM
      1 O3         -29.5320    23.2120    -3.3420 oh         1 W5N      -0.663000
      2 O5         -29.1780    22.0520     2.8920 o          1 W5N      -0.548000
      3 C3         -28.6840    21.6050    -1.6550 c6         1 W5N      -0.061700
      4 C4         -27.3090    21.2590    -2.3260 cx         1 W5N       0.126000
      5 C5         -26.6030    22.4020    -3.0610 c3         1 W5N      -0.077100
      6 C6         -26.9540    19.8550    -2.7910 cx         1 W5N       0.088300
      7 C7         -27.7840    18.5820    -2.6040 c3         1 W5N      -0.031200
      8 C2         -28.5580    22.7130    -0.5510 c6         1 W5N       0.159300
      9 N1         -30.1480    20.0250     2.4290 ns         1 W5N      -0.498900
     10 O1         -27.4270    22.4740     0.3210 os         1 W5N      -0.430000
     11 O2         -26.4280    20.3990    -1.5620 op         1 W5N      -0.424000
     12 C8         -28.3470    18.0680    -3.9230 c2         1 W5N      -0.220200
     13 C9         -29.4850    17.3740    -4.1160 c2         1 W5N      -0.114400
     14 C10        -29.9540    16.9580    -5.4980 c3         1 W5N      -0.056400
     15 C11        -30.4450    16.9220    -3.0250 c3         1 W5N      -0.056400
     16 C12        -29.8420    21.9930    -2.6610 c6         1 W5N       0.197000
     17 C13        -30.0760    20.9170    -3.7540 c3         1 W5N      -0.085100
     18 C14        -31.1740    22.2050    -1.8800 c6         1 W5N      -0.107400
     19 C15        -31.0390    23.2430    -0.7320 c6         1 W5N      -0.084400
     20 C16        -29.9040    22.8590     0.2450 c6         1 W5N       0.160300
     21 O4         -30.2750    21.6280     0.9110 os         1 W5N      -0.466100
     22 C17        -29.7970    21.3120     2.1450 c          1 W5N       0.655100
     23 C18        -29.7920    19.2930     3.6460 c6         1 W5N       0.127700
     24 C19        -30.7840    18.1240     3.8740 c6         1 W5N      -0.091900
     25 C20        -30.4130    17.3030     5.1360 c6         1 W5N      -0.072900
     26 C21        -28.9610    16.7670     5.0460 c6         1 W5N       0.160500
     27 N2         -28.6070    16.0220     6.2660 n8         1 W5N      -0.996200
     28 C22        -27.9590    17.9230     4.8020 c6         1 W5N      -0.072900
     29 C23        -28.3450    18.7420     3.5430 c6         1 W5N      -0.091900
     30 H22        -30.2950    23.4140    -3.9240 ho         1 W5N       0.440000
     31 H5         -29.0090    20.7030    -1.1270 hc         1 W5N       0.079700
     32 H7         -26.7020    23.3560    -2.5340 hc         1 W5N       0.047700
     33 H8         -25.5300    22.2000    -3.1680 hc         1 W5N       0.047700
     34 H6         -27.0130    22.5280    -4.0690 hc         1 W5N       0.047700
     35 H9         -26.2130    19.7660    -3.5860 h1         1 W5N       0.074700
     36 H11        -28.5710    18.7350    -1.8630 hc         1 W5N       0.059200
     37 H10        -27.1270    17.8100    -2.1840 hc         1 W5N       0.059200
     38 H4         -28.3700    23.6710    -1.0560 h1         1 W5N       0.036700
     39 H28        -30.6720    19.5490     1.7080 hn         1 W5N       0.320500
     40 H1         -26.1110    23.2740     1.7350 h1         1 W5N       0.033367
     41 H2         -26.6210    24.4030     0.4620 h1         1 W5N       0.033367
     42 H3         -27.7440    23.9690     1.7700 h1         1 W5N       0.033367
     43 H12        -27.7330    18.3280    -4.7880 ha         1 W5N       0.167000
     44 H15        -29.2630    17.2920    -6.2810 hc         1 W5N       0.039200
     45 H13        -30.0350    15.8670    -5.5760 hc         1 W5N       0.039200
     46 H14        -30.9380    17.3840    -5.7260 hc         1 W5N       0.039200
     47 H17        -30.0830    17.1400    -2.0150 hc         1 W5N       0.039200
     48 H18        -31.4210    17.4100    -3.1350 hc         1 W5N       0.039200
     49 H16        -30.6100    15.8390    -3.0740 hc         1 W5N       0.039200
     50 H19        -30.3440    19.9550    -3.3040 hc         1 W5N       0.047700
     51 H21        -30.8980    21.1970    -4.4240 hc         1 W5N       0.047700
     52 H20        -29.1890    20.7690    -4.3810 hc         1 W5N       0.047700
     53 H23        -31.9700    22.5260    -2.5650 hc         1 W5N       0.058200
     54 H24        -31.5110    21.2460    -1.4610 hc         1 W5N       0.058200
     55 H25        -30.8450    24.2420    -1.1470 hc         1 W5N       0.053700
     56 H26        -31.9880    23.3190    -0.1850 hc         1 W5N       0.053700
     57 H27        -29.8190    23.6630     0.9910 h1         1 W5N       0.077700
     58 H29        -29.8540    19.9850     4.5000 h1         1 W5N       0.078700
     59 H31        -31.8040    18.5170     3.9790 hc         1 W5N       0.048450
     60 H30        -30.7930    17.4630     2.9960 hc         1 W5N       0.048450
     61 H32        -30.5260    17.9340     6.0290 hc         1 W5N       0.050700
     62 H33        -31.1170    16.4680     5.2510 hc         1 W5N       0.050700
     63 H34        -28.8960    16.0580     4.2060 h1         1 W5N       0.012700
     64 H37        -29.2280    15.2080     6.3460 hn         1 W5N       0.393000
     65 H35        -27.6800    15.6010     6.1360 hn         1 W5N       0.393000
     66 H39        -26.9430    17.5230     4.6820 hc         1 W5N       0.050700
     67 H38        -27.9320    18.5880     5.6770 hc         1 W5N       0.050700
     68 H40        -28.2480    18.1100     2.6490 hc         1 W5N       0.048450
     69 H41        -27.6370    19.5720     3.4150 hc         1 W5N       0.048450
     70 C1         -26.9580    23.5840     1.1100 c3         1 W5N       0.141900
@<TRIPOS>BOND
     1     1    16 1   
     2     1    30 1   
     3     2    22 2   
     4     3     4 1   
     5     3     8 1   
     6     3    16 1   
     7     3    31 1   
     8     4     5 1   
     9     4     6 1   
    10     4    11 1   
    11     5    32 1   
    12     5    33 1   
    13     5    34 1   
    14     6     7 1   
    15     6    11 1   
    16     6    35 1   
    17     7    12 1   
    18     7    36 1   
    19     7    37 1   
    20     8    10 1   
    21     8    20 1   
    22     8    38 1   
    23     9    22 1   
    24     9    23 1   
    25     9    39 1   
    26    10    70 1   
    27    12    13 2   
    28    12    43 1   
    29    13    14 1   
    30    13    15 1   
    31    14    44 1   
    32    14    45 1   
    33    14    46 1   
    34    15    47 1   
    35    15    48 1   
    36    15    49 1   
    37    16    17 1   
    38    16    18 1   
    39    17    50 1   
    40    17    51 1   
    41    17    52 1   
    42    18    19 1   
    43    18    53 1   
    44    18    54 1   
    45    19    20 1   
    46    19    55 1   
    47    19    56 1   
    48    20    21 1   
    49    20    57 1   
    50    21    22 1   
    51    23    24 1   
    52    23    29 1   
    53    23    58 1   
    54    24    25 1   
    55    24    59 1   
    56    24    60 1   
    57    25    26 1   
    58    25    61 1   
    59    25    62 1   
    60    26    27 1   
    61    26    28 1   
    62    26    63 1   
    63    27    64 1   
    64    27    65 1   
    65    28    29 1   
    66    28    66 1   
    67    28    67 1   
    68    29    68 1   
    69    29    69 1   
    70    40    70 1   
    71    41    70 1   
    72    42    70 1   
@<TRIPOS>SUBSTRUCTURE
     1 W5N         1 TEMP              0 ****  ****    0 ROOT
