@<TRIPOS>MOLECULE
W5O
   47    49     1     0     0
SMALL
abcg2


@<TRIPOS>ATOM
      1 C10        105.4440   108.9470   106.7030 ca         1 W5O      -0.111000
      2 C11        104.9780   108.4570   107.9160 ca         1 W5O      -0.105000
      3 C12        103.6240   108.1940   108.0720 ca         1 W5O      -0.111000
      4 O16        102.3930   106.5690   103.7390 o          1 W5O      -0.561100
      5 C17        100.0670   106.2000   104.0780 ca         1 W5O      -0.154600
      6 C19         98.8210   104.1720   104.5210 ca         1 W5O      -0.202300
      7 C20         97.7510   104.6830   103.7960 ca         1 W5O      -0.041000
      8 C22         98.9780   106.6940   103.3660 ca         1 W5O      -0.057000
      9 C23         98.7160   102.8030   105.1340 c3         1 W5O       0.366300
     10 C01        100.4090   112.4470   105.8690 c6         1 W5O      -0.075400
     11 C02        101.5470   113.4080   105.5500 c6         1 W5O      -0.076400
     12 C03        102.2780   112.9540   104.2970 c6         1 W5O       0.162800
     13 C05        101.6740   110.6430   104.6690 c6         1 W5O       0.169500
     14 C06        100.9280   111.0150   105.9480 c6         1 W5O      -0.074400
     15 C07        102.2530   109.2120   104.6620 c3         1 W5O       0.165000
     16 C08        103.1970   108.9260   105.8090 ca         1 W5O      -0.083300
     17 C09        104.5580   109.1790   105.6600 ca         1 W5O      -0.087500
     18 C13        102.7420   108.4230   107.0240 ca         1 W5O      -0.087500
     19 C18         99.9780   104.9390   104.6570 ca         1 W5O       0.200000
     20 C21         97.8270   105.9410   103.2220 ca         1 W5O      -0.123000
     21 F24         97.5370   102.2350   104.8740 f          1 W5O      -0.107000
     22 F25         99.6540   101.9730   104.6630 f          1 W5O      -0.107000
     23 F26         98.8440   102.8340   106.4640 f          1 W5O      -0.107000
     24 N04        102.7550   111.5890   104.4580 n7         1 W5O      -0.855400
     25 N14        101.1630   108.2610   104.5950 ns         1 W5O      -0.504900
     26 CL27       101.3030   104.3490   105.5940 cl         1 W5O      -0.139000
     27 H1         106.4990   109.1450   106.5670 ha         1 W5O       0.111000
     28 H2         105.6660   108.2750   108.7310 ha         1 W5O       0.111000
     29 H3         103.2510   107.8050   109.0110 ha         1 W5O       0.111000
     30 H4          96.8470   104.1050   103.6770 ha         1 W5O       0.138000
     31 H5          99.0400   107.6730   102.9090 ha         1 W5O       0.125000
     32 H6          99.9230   112.7210   106.8070 hc         1 W5O       0.038700
     33 H7          99.6440   112.5160   105.0880 hc         1 W5O       0.038700
     34 H8         102.2490   113.4430   106.3880 hc         1 W5O       0.049700
     35 H9         101.1670   114.4220   105.4070 hc         1 W5O       0.049700
     36 H10        103.1360   113.5980   104.1000 h1         1 W5O       0.030200
     37 H11        101.5960   113.0540   103.4360 h1         1 W5O       0.030200
     38 H12        100.9480   110.6760   103.8360 h1         1 W5O       0.017700
     39 H13        100.0950   110.3300   106.1240 hc         1 W5O       0.049700
     40 H14        101.6050   110.9210   106.8010 hc         1 W5O       0.049700
     41 H15        102.8220   109.1150   103.7310 h1         1 W5O       0.070700
     42 H16        104.9310   109.5530   104.7140 ha         1 W5O       0.107500
     43 H17        101.6900   108.2010   107.1610 ha         1 W5O       0.107500
     44 H18         96.9890   106.3290   102.6620 ha         1 W5O       0.129000
     45 H19        103.2710   111.3250   103.6260 hn         1 W5O       0.410000
     46 H21        100.2640   108.5230   104.9690 hn         1 W5O       0.318500
     47 C15        101.3300   107.0130   104.1320 c          1 W5O       0.616700
@<TRIPOS>BOND
     1     1     2 ar  
     2     1    17 ar  
     3     1    27 1   
     4     2     3 ar  
     5     2    28 1   
     6     3    18 ar  
     7     3    29 1   
     8     4    47 2   
     9     5     8 ar  
    10     5    19 ar  
    11     5    47 1   
    12     6     7 ar  
    13     6     9 1   
    14     6    19 ar  
    15     7    20 ar  
    16     7    30 1   
    17     8    20 ar  
    18     8    31 1   
    19     9    21 1   
    20     9    22 1   
    21     9    23 1   
    22    10    11 1   
    23    10    14 1   
    24    10    32 1   
    25    10    33 1   
    26    11    12 1   
    27    11    34 1   
    28    11    35 1   
    29    12    24 1   
    30    12    36 1   
    31    12    37 1   
    32    13    14 1   
    33    13    15 1   
    34    13    24 1   
    35    13    38 1   
    36    14    39 1   
    37    14    40 1   
    38    15    16 1   
    39    15    25 1   
    40    15    41 1   
    41    16    17 ar  
    42    16    18 ar  
    43    17    42 1   
    44    18    43 1   
    45    19    26 1   
    46    20    44 1   
    47    24    45 1   
    48    25    46 1   
    49    25    47 1   
@<TRIPOS>SUBSTRUCTURE
     1 W5O         1 TEMP              0 ****  ****    0 ROOT
