@<TRIPOS>MOLECULE
W5O
   47    49     1     0     0
SMALL
No Charge or Current Charge


@<TRIPOS>ATOM
      1 C10        105.3600   109.2410   107.7440 ca         1 W5O      -0.111000
      2 C11        104.6280   109.2630   108.9420 ca         1 W5O      -0.105000
      3 C12        103.2260   109.1870   108.9050 ca         1 W5O      -0.111000
      4 O16        101.3920   107.5360   102.9210 o          1 W5O      -0.561100
      5 C17         99.9380   106.2510   104.3560 ca         1 W5O      -0.154600
      6 C19         98.6700   104.1930   103.8590 ca         1 W5O      -0.202300
      7 C20         97.8390   104.4590   104.9700 ca         1 W5O      -0.041000
      8 C22         99.0880   106.4820   105.4630 ca         1 W5O      -0.057000
      9 C23         98.4250   102.9340   103.0070 c3         1 W5O       0.366300
     10 C01        100.3330   112.2260   104.7530 c6         1 W5O      -0.075400
     11 C02        101.4970   113.2170   104.5120 c6         1 W5O      -0.076400
     12 C03        102.6250   112.5560   103.6840 c6         1 W5O       0.162800
     13 C05        102.0120   110.3060   104.5290 c6         1 W5O       0.169500
     14 C06        100.8660   110.9190   105.3880 c6         1 W5O      -0.074400
     15 C07        102.5770   108.9490   105.1050 c3         1 W5O       0.165000
     16 C08        103.2840   109.0700   106.4610 ca         1 W5O      -0.083300
     17 C09        104.6920   109.1430   106.5110 ca         1 W5O      -0.087500
     18 C13        102.5570   109.0890   107.6730 ca         1 W5O      -0.087500
     19 C18         99.7250   105.0970   103.5540 ca         1 W5O       0.200000
     20 C21         98.0500   105.5920   105.7630 ca         1 W5O      -0.123000
     21 F24         97.3570   102.2140   103.4220 f          1 W5O      -0.107000
     22 F25         98.1920   103.2390   101.7100 f          1 W5O      -0.107000
     23 F26         99.4830   102.0910   103.0390 f          1 W5O      -0.107000
     24 N04        103.1000   111.3040   104.3190 n7         1 W5O      -0.855400
     25 N14        101.5650   107.8860   105.1530 ns         1 W5O      -0.504900
     26 Cl27       100.8190   104.7270   102.2070 cl         1 W5O      -0.139000
     27 H1         106.4460   109.2990   107.7700 ha         1 W5O       0.111000
     28 H2         105.1450   109.3390   109.8960 ha         1 W5O       0.111000
     29 H3         102.6570   109.2040   109.8320 ha         1 W5O       0.111000
     30 H4          97.0220   103.7900   105.2350 ha         1 W5O       0.138000
     31 H5          99.2040   107.3670   106.0850 ha         1 W5O       0.125000
     32 H6          99.5770   112.6820   105.4060 hc         1 W5O       0.038700
     33 H7          99.8350   111.9990   103.8010 hc         1 W5O       0.038700
     34 H8         101.9000   113.5590   105.4750 hc         1 W5O       0.049700
     35 H9         101.1280   114.1110   103.9920 hc         1 W5O       0.049700
     36 H10        103.4670   113.2580   103.5830 h1         1 W5O       0.030200
     37 H11        102.2540   112.3340   102.6730 h1         1 W5O       0.030200
     38 H12        101.5900   110.0780   103.5400 h1         1 W5O       0.017700
     39 H13        100.0430   110.2000   105.4950 hc         1 W5O       0.049700
     40 H14        101.2300   111.1380   106.4000 hc         1 W5O       0.049700
     41 H15        103.3330   108.6120   104.3830 h1         1 W5O       0.070700
     42 H16        105.2720   109.1280   105.5910 ha         1 W5O       0.107500
     43 H17        101.4710   109.0340   107.6660 ha         1 W5O       0.107500
     44 H18         97.4000   105.7860   106.6130 ha         1 W5O       0.129000
     45 H19        103.8200   110.8880   103.7160 hn         1 W5O       0.410000
     46 H21        101.2520   107.5650   106.0590 hn         1 W5O       0.318500
     47 C15        101.0340   107.2480   104.0540 c          1 W5O       0.616700
@<TRIPOS>BOND
     1     1     2 ar  
     2     1    17 ar  
     3     1    27 1   
     4     2     3 ar  
     5     2    28 1   
     6     3    18 ar  
     7     3    29 1   
     8     4    47 2   
     9     5     8 ar  
    10     5    19 ar  
    11     5    47 1   
    12     6     7 ar  
    13     6     9 1   
    14     6    19 ar  
    15     7    20 ar  
    16     7    30 1   
    17     8    20 ar  
    18     8    31 1   
    19     9    21 1   
    20     9    22 1   
    21     9    23 1   
    22    10    11 1   
    23    10    14 1   
    24    10    32 1   
    25    10    33 1   
    26    11    12 1   
    27    11    34 1   
    28    11    35 1   
    29    12    24 1   
    30    12    36 1   
    31    12    37 1   
    32    13    14 1   
    33    13    15 1   
    34    13    24 1   
    35    13    38 1   
    36    14    39 1   
    37    14    40 1   
    38    15    16 1   
    39    15    25 1   
    40    15    41 1   
    41    16    17 ar  
    42    16    18 ar  
    43    17    42 1   
    44    18    43 1   
    45    19    26 1   
    46    20    44 1   
    47    24    45 1   
    48    25    46 1   
    49    25    47 1   
@<TRIPOS>SUBSTRUCTURE
     1 W5O         1 TEMP              0 ****  ****    0 ROOT
