@<TRIPOS>MOLECULE
W5P
   29    31     1     0     0
SMALL
No Charge or Current Charge


@<TRIPOS>ATOM
      1 C10        -44.0700   -28.7260     6.1040 ca         1 W5P       0.178900
      2 C15        -47.7230   -29.5880     4.5540 cc         1 W5P      -0.200200
      3 C02        -46.0930   -30.7490     0.7680 c6         1 W5P       0.164300
      4 C03        -44.9310   -31.7180     0.4370 c6         1 W5P      -0.103400
      5 C04        -44.3470   -32.3470     1.7290 c6         1 W5P      -0.103400
      6 C05        -43.9320   -31.2630     2.7560 c6         1 W5P       0.212800
      7 C07        -45.6900   -29.7200     1.8660 c6         1 W5P       0.185800
      8 C08        -45.1440   -29.6920     4.3130 ca         1 W5P       0.441900
      9 C12        -46.3580   -28.6840     6.1320 ca         1 W5P       0.138500
     10 C14        -48.5140   -29.0390     5.5490 cd         1 W5P      -0.183100
     11 C16        -46.3600   -29.3460     4.9310 ca         1 W5P      -0.231800
     12 F01        -47.1920   -31.5100     1.2290 f          1 W5P      -0.262000
     13 N06        -45.0800   -30.3640     3.0740 nh         1 W5P      -0.756300
     14 N09        -43.9790   -29.3790     4.9220 nb         1 W5P      -0.307000
     15 N11        -45.2050   -28.3580     6.7440 nb         1 W5P      -0.230000
     16 N13        -47.6680   -28.4680     6.5330 na         1 W5P      -0.315400
     17 H101       -43.1310   -28.4700     6.5930 h5         1 W5P       0.042100
     18 H151       -48.0840   -30.1180     3.6740 ha         1 W5P       0.200000
     19 H021       -46.4220   -30.2230    -0.1400 h1         1 W5P       0.056700
     20 H032       -45.2780   -32.5050    -0.2460 hc         1 W5P       0.052200
     21 H031       -44.1410   -31.1690    -0.0930 hc         1 W5P       0.052200
     22 H042       -45.0890   -33.0160     2.1860 hc         1 W5P       0.059200
     23 H041       -43.4780   -32.9720     1.4810 hc         1 W5P       0.059200
     24 H051       -43.5740   -31.7680     3.6660 h1         1 W5P       0.068700
     25 H052       -43.0900   -30.6790     2.3530 h1         1 W5P       0.068700
     26 H072       -44.9720   -29.0110     1.4280 h1         1 W5P       0.067200
     27 H071       -46.5790   -29.1340     2.1370 h1         1 W5P       0.067200
     28 H141       -49.6000   -29.0190     5.6340 h4         1 W5P       0.216000
     29 H131       -47.9580   -27.9950     7.3840 hn         1 W5P       0.361000
@<TRIPOS>BOND
     1     1    14 ar  
     2     1    15 ar  
     3     1    17 1   
     4     2    10 2   
     5     2    11 1   
     6     2    18 1   
     7     3     4 1   
     8     3     7 1   
     9     3    12 1   
    10     3    19 1   
    11     4     5 1   
    12     4    20 1   
    13     4    21 1   
    14     5     6 1   
    15     5    22 1   
    16     5    23 1   
    17     6    13 1   
    18     6    24 1   
    19     6    25 1   
    20     7    13 1   
    21     7    26 1   
    22     7    27 1   
    23     8    11 ar  
    24     8    13 1   
    25     8    14 ar  
    26     9    11 ar  
    27     9    15 ar  
    28     9    16 1   
    29    10    16 1   
    30    10    28 1   
    31    16    29 1   
@<TRIPOS>SUBSTRUCTURE
     1 W5P         1 TEMP              0 ****  ****    0 ROOT
