@<TRIPOS>MOLECULE
W5P
   29    31     1     0     0
SMALL
bcc


@<TRIPOS>ATOM
      1 C10        -44.4400   -29.9060     6.2970 ca         1 W5P       0.704900
      2 C15        -47.6690   -28.7920     4.0920 cc         1 W5P      -0.150200
      3 C02        -46.2230   -31.0570     1.2720 c6         1 W5P       0.145600
      4 C03        -45.0640   -31.9710     0.9270 c6         1 W5P      -0.103400
      5 C04        -43.9930   -31.9820     2.0150 c6         1 W5P      -0.103400
      6 C05        -43.6050   -30.5600     2.4090 c6         1 W5P       0.212800
      7 C07        -45.7270   -29.6880     1.7030 c6         1 W5P       0.185800
      8 C08        -45.1460   -29.7050     4.1050 ca         1 W5P       0.770200
      9 C12        -46.4770   -29.1340     5.9940 ca         1 W5P       0.466800
     10 C14        -48.4260   -28.4620     5.1750 cd         1 W5P      -0.133100
     11 C16        -46.3940   -29.2260     4.5900 ca         1 W5P      -0.362400
     12 F01        -46.9450   -31.6100     2.3370 f          1 W5P      -0.243300
     13 N06        -44.7930   -29.8090     2.8000 nh         1 W5P      -0.756300
     14 N09        -44.2100   -30.0440     4.9980 nb         1 W5P      -0.833000
     15 N11        -45.5310   -29.4580     6.8780 nb         1 W5P      -0.756000
     16 N13        -47.7040   -28.6690     6.3170 na         1 W5P      -0.265100
     17 H101       -43.6270   -30.2020     6.9520 h5         1 W5P       0.042100
     18 H151       -48.0180   -28.7210     3.0780 ha         1 W5P       0.150000
     19 H021       -46.9090   -30.9570     0.4270 h1         1 W5P       0.056700
     20 H032       -45.4310   -32.9800     0.7240 hc         1 W5P       0.052200
     21 H031       -44.6320   -31.6060    -0.0100 hc         1 W5P       0.052200
     22 H042       -44.3500   -32.5140     2.9010 hc         1 W5P       0.059200
     23 H041       -43.1100   -32.5170     1.6620 hc         1 W5P       0.059200
     24 H051       -42.8840   -30.5570     3.2190 h1         1 W5P       0.068700
     25 H052       -43.1530   -30.0440     1.5570 h1         1 W5P       0.068700
     26 H072       -45.2060   -29.2330     0.8560 h1         1 W5P       0.067200
     27 H071       -46.5430   -29.0200     1.9460 h1         1 W5P       0.067200
     28 H141       -49.4380   -28.0930     5.2200 h4         1 W5P       0.166000
     29 H131       -48.0330   -28.5150     7.2570 hn         1 W5P       0.310700
@<TRIPOS>BOND
     1     1    14 ar  
     2     1    15 ar  
     3     1    17 1   
     4     2    10 2   
     5     2    11 1   
     6     2    18 1   
     7     3     4 1   
     8     3     7 1   
     9     3    12 1   
    10     3    19 1   
    11     4     5 1   
    12     4    20 1   
    13     4    21 1   
    14     5     6 1   
    15     5    22 1   
    16     5    23 1   
    17     6    13 1   
    18     6    24 1   
    19     6    25 1   
    20     7    13 1   
    21     7    26 1   
    22     7    27 1   
    23     8    11 ar  
    24     8    13 1   
    25     8    14 ar  
    26     9    11 ar  
    27     9    15 ar  
    28     9    16 1   
    29    10    16 1   
    30    10    28 1   
    31    16    29 1   
@<TRIPOS>SUBSTRUCTURE
     1 W5P         1 TEMP              0 ****  ****    0 ROOT
