@<TRIPOS>MOLECULE
W5Q
   33    33     1     0     0
SMALL
abcg2


@<TRIPOS>ATOM
      1 N1          -3.2290    15.3140   -34.4870 n7         1 W5Q      -0.862400
      2 C7          -1.7500    15.5850   -37.1030 ca         1 W5Q      -0.060000
      3 C8          -1.0110    16.0940   -38.1640 ca         1 W5Q      -0.160000
      4 C9           0.3560    16.2240   -38.0040 ca         1 W5Q       0.191000
      5 C1          -5.8450    19.2410   -33.3780 c3         1 W5Q       0.105000
      6 C5          -2.2460    13.1410   -34.9940 c3         1 W5Q      -0.083100
      7 C6          -1.1560    15.2080   -35.8980 ca         1 W5Q      -0.175300
      8 C4          -1.9690    14.6230   -34.7460 c3         1 W5Q       0.231800
      9 C3          -3.0930    16.7260   -34.1750 c3         1 W5Q       0.084800
     10 C2          -4.4470    17.4080   -34.2550 c          1 W5Q       0.593100
     11 F1           1.0940    16.7180   -39.0280 f          1 W5Q      -0.176000
     12 C10          1.0050    15.8710   -36.8350 ca         1 W5Q      -0.189000
     13 C11          0.2200    15.3690   -35.8110 ca         1 W5Q       0.195000
     14 F            0.8510    15.0170   -34.6620 f          1 W5Q      -0.179000
     15 O           -5.2880    17.0550   -35.0860 o          1 W5Q      -0.617100
     16 N           -4.6330    18.4310   -33.4070 ns         1 W5Q      -0.504900
     17 C           -6.9160    18.6700   -32.4540 c3         1 W5Q      -0.114100
     18 H1          -3.8710    15.2110   -35.2670 hn         1 W5Q       0.439000
     19 H3          -2.8220    15.4860   -37.2150 ha         1 W5Q       0.127000
     20 H4          -1.4810    16.3860   -39.0930 ha         1 W5Q       0.140000
     21 H5          -5.5600    20.2430   -33.0580 h1         1 W5Q       0.054200
     22 H6          -6.2220    19.3100   -34.3980 h1         1 W5Q       0.054200
     23 H7          -2.7660    12.7070   -34.1390 hc         1 W5Q       0.045367
     24 H8          -2.8700    13.0180   -35.8830 hc         1 W5Q       0.045367
     25 H9          -1.3140    12.5970   -35.1540 hc         1 W5Q       0.045367
     26 H10         -1.3670    14.7160   -33.8400 h1         1 W5Q       0.072700
     27 H11         -2.6580    16.8460   -33.1810 h1         1 W5Q       0.050200
     28 H12         -2.4360    17.2620   -34.8790 h1         1 W5Q       0.050200
     29 H13          2.0740    15.9810   -36.7230 ha         1 W5Q       0.151000
     30 H14         -3.9190    18.6180   -32.7200 hn         1 W5Q       0.312500
     31 H15         -7.7970    19.3140   -32.4560 hc         1 W5Q       0.043700
     32 H16         -7.2170    17.6740   -32.7820 hc         1 W5Q       0.043700
     33 H17         -6.5450    18.5990   -31.4300 hc         1 W5Q       0.043700
@<TRIPOS>BOND
     1     1     8 1   
     2     1     9 1   
     3     1    18 1   
     4     2     3 ar  
     5     2     7 ar  
     6     2    19 1   
     7     3     4 ar  
     8     3    20 1   
     9     4    11 1   
    10     4    12 ar  
    11     5    16 1   
    12     5    17 1   
    13     5    21 1   
    14     5    22 1   
    15     6     8 1   
    16     6    23 1   
    17     6    24 1   
    18     6    25 1   
    19     7     8 1   
    20     7    13 ar  
    21     8    26 1   
    22     9    10 1   
    23     9    27 1   
    24     9    28 1   
    25    10    15 2   
    26    10    16 1   
    27    12    13 ar  
    28    12    29 1   
    29    13    14 1   
    30    16    30 1   
    31    17    31 1   
    32    17    32 1   
    33    17    33 1   
@<TRIPOS>SUBSTRUCTURE
     1 W5Q         1 TEMP              0 ****  ****    0 ROOT
