@<TRIPOS>MOLECULE
W5Q
   33    33     1     0     0
SMALL
No Charge or Current Charge


@<TRIPOS>ATOM
      1 N1          -3.2940    15.2660   -34.7260 n7         1 W5Q      -0.862400
      2 C7          -1.5880    15.0700   -37.3030 ca         1 W5Q      -0.060000
      3 C8          -0.7930    15.6250   -38.3220 ca         1 W5Q      -0.160000
      4 C9           0.4270    16.2380   -38.0050 ca         1 W5Q       0.191000
      5 C1          -5.7580    19.3940   -33.1620 c3         1 W5Q       0.105000
      6 C5          -2.3290    13.0340   -35.0740 c3         1 W5Q      -0.083100
      7 C6          -1.1620    15.1260   -35.9560 ca         1 W5Q      -0.175300
      8 C4          -2.0250    14.5270   -34.8420 c3         1 W5Q       0.231800
      9 C3          -3.1860    16.6960   -34.2810 c3         1 W5Q       0.084800
     10 C2          -4.5320    17.4900   -34.2770 c          1 W5Q       0.593100
     11 F1           1.1870    16.7700   -38.9860 f          1 W5Q      -0.176000
     12 C10          0.8600    16.3030   -36.6760 ca         1 W5Q      -0.189000
     13 C11          0.0700    15.7510   -35.6570 ca         1 W5Q       0.195000
     14 F            0.5110    15.8300   -34.3820 f          1 W5Q      -0.179000
     15 O           -5.4670    17.2310   -35.0290 o          1 W5Q      -0.617100
     16 N           -4.5950    18.5260   -33.3660 ns         1 W5Q      -0.504900
     17 C           -6.8450    18.7140   -32.3120 c3         1 W5Q      -0.114100
     18 H1          -3.7590    15.2500   -35.6430 hn         1 W5Q       0.439000
     19 H3          -2.5340    14.6010   -37.5660 ha         1 W5Q       0.127000
     20 H4          -1.1230    15.5810   -39.3570 ha         1 W5Q       0.140000
     21 H5          -5.4260    20.3130   -32.6610 h1         1 W5Q       0.054200
     22 H6          -6.1750    19.6750   -34.1390 h1         1 W5Q       0.054200
     23 H7          -2.8830    12.6190   -34.2240 hc         1 W5Q       0.045367
     24 H8          -2.9280    12.8790   -35.9800 hc         1 W5Q       0.045367
     25 H9          -1.3960    12.4690   -35.1780 hc         1 W5Q       0.045367
     26 H10         -1.4820    14.5890   -33.8880 h1         1 W5Q       0.072700
     27 H11         -2.7730    16.7390   -33.2650 h1         1 W5Q       0.050200
     28 H12         -2.5000    17.2580   -34.9290 h1         1 W5Q       0.050200
     29 H13          1.8050    16.7810   -36.4340 ha         1 W5Q       0.151000
     30 H14         -3.7760    18.6760   -32.7870 hn         1 W5Q       0.312500
     31 H15         -7.6920    19.3950   -32.1640 hc         1 W5Q       0.043700
     32 H16         -7.2170    17.8080   -32.8040 hc         1 W5Q       0.043700
     33 H17         -6.4500    18.4380   -31.3280 hc         1 W5Q       0.043700
@<TRIPOS>BOND
     1     1     8 1   
     2     1     9 1   
     3     1    18 1   
     4     2     3 ar  
     5     2     7 ar  
     6     2    19 1   
     7     3     4 ar  
     8     3    20 1   
     9     4    11 1   
    10     4    12 ar  
    11     5    16 1   
    12     5    17 1   
    13     5    21 1   
    14     5    22 1   
    15     6     8 1   
    16     6    23 1   
    17     6    24 1   
    18     6    25 1   
    19     7     8 1   
    20     7    13 ar  
    21     8    26 1   
    22     9    10 1   
    23     9    27 1   
    24     9    28 1   
    25    10    15 2   
    26    10    16 1   
    27    12    13 ar  
    28    12    29 1   
    29    13    14 1   
    30    16    30 1   
    31    17    31 1   
    32    17    32 1   
    33    17    33 1   
@<TRIPOS>SUBSTRUCTURE
     1 W5Q         1 TEMP              0 ****  ****    0 ROOT
