@<TRIPOS>MOLECULE
W5R
   69    70     1     0     0
SMALL
abcg2


@<TRIPOS>ATOM
      1 N2         -55.0250    37.5000   -75.5790 n3         1 W5R      -0.728100
      2 C3         -51.2110    34.0580   -72.2460 ca         1 W5R      -0.031300
      3 C6         -50.9120    35.4780   -71.7710 c6         1 W5R       0.108000
      4 C9         -49.4780    36.6440   -73.4200 c2         1 W5R       0.208300
      5 C12        -47.6650    34.5360   -69.4620 c3         1 W5R       0.153900
      6 C23        -54.1250    36.1540   -69.2630 c3         1 W5R       0.153900
      7 C19        -53.9580    36.8590   -74.8290 c3         1 W5R       0.182300
      8 C1         -52.2690    31.9130   -71.8430 ca         1 W5R      -0.062000
      9 N          -50.6490    36.9250   -74.1220 nh         1 W5R      -0.555200
     10 C          -51.8560    31.4710   -73.0960 ca         1 W5R      -0.195300
     11 C10        -49.5690    36.0020   -72.2220 ce         1 W5R      -0.258900
     12 C11        -48.4040    35.7310   -71.3750 c          1 W5R       0.620800
     13 C13        -48.1880    37.0550   -74.0640 c3         1 W5R      -0.107700
     14 C15        -46.4720    36.9940   -76.6510 c3         1 W5R       0.156100
     15 C16        -45.1930    36.6570   -74.6290 c3         1 W5R       0.156100
     16 C18        -52.9440    37.8120   -74.1390 c3         1 W5R      -0.107700
     17 C2         -51.9470    33.2000   -71.4290 ca         1 W5R      -0.108500
     18 C20        -55.9270    38.2910   -74.7570 c3         1 W5R       0.156100
     19 C21        -54.5650    38.2330   -76.7490 c3         1 W5R       0.156100
     20 C24        -52.1470    30.0750   -73.5520 c3         1 W5R       0.343300
     21 C4         -50.7960    33.5930   -73.4950 ca         1 W5R      -0.108500
     22 C5         -51.1160    32.3130   -73.9220 ca         1 W5R      -0.062000
     23 C7         -52.0000    36.4340   -72.2340 ce         1 W5R      -0.258900
     24 C8         -51.8640    37.0350   -73.4520 c2         1 W5R       0.208300
     25 F          -51.0630    29.2610   -73.4310 f          1 W5R      -0.115333
     26 F1         -53.1420    29.4850   -72.8560 f          1 W5R      -0.115333
     27 F2         -52.5020    30.0230   -74.8580 f          1 W5R      -0.115333
     28 N1         -46.2660    36.1600   -75.4770 n3         1 W5R      -0.728100
     29 O1         -48.7230    34.8830   -70.3680 os         1 W5R      -0.448600
     30 O2         -54.1770    37.2810   -71.6370 o          1 W5R      -0.511000
     31 O3         -53.0300    36.0230   -70.1820 os         1 W5R      -0.448600
     32 H2         -50.9230    35.4520   -70.6890 hc         1 W5R       0.095700
     33 H3         -48.1120    33.8570   -68.7410 h1         1 W5R       0.048200
     34 H4         -46.8520    34.0440   -69.9940 h1         1 W5R       0.048200
     35 H5         -47.2850    35.4250   -68.9590 h1         1 W5R       0.048200
     36 H6         -48.1810    35.3810   -75.4570 h1         1 W5R       0.057700
     37 H7         -47.2570    35.1130   -73.9860 h1         1 W5R       0.057700
     38 H8         -51.4940    36.9650   -76.0380 h1         1 W5R       0.053033
     39 H9         -50.4000    38.3230   -75.7190 h1         1 W5R       0.053033
     40 H10        -49.7710    36.6900   -76.0080 h1         1 W5R       0.053033
     41 H11        -53.8330    35.5870   -68.3830 h1         1 W5R       0.048200
     42 H12        -54.2860    37.1990   -69.0040 h1         1 W5R       0.048200
     43 H13        -55.0370    35.7420   -69.6940 h1         1 W5R       0.048200
     44 H14        -54.4070    36.2360   -74.0550 h1         1 W5R       0.057700
     45 H15        -53.4230    36.1930   -75.5110 h1         1 W5R       0.057700
     46 H16        -52.8350    31.2620   -71.1920 ha         1 W5R       0.127000
     47 H17        -47.5320    37.4380   -73.2910 hc         1 W5R       0.076200
     48 H18        -48.3610    37.8530   -74.7810 hc         1 W5R       0.076200
     49 H19        -45.5530    37.0280   -77.2390 h1         1 W5R       0.032283
     50 H20        -47.2620    36.5660   -77.2710 h1         1 W5R       0.032283
     51 H21        -46.7520    38.0320   -76.4100 h1         1 W5R       0.032283
     52 H22        -45.0530    35.9840   -73.7830 h1         1 W5R       0.032283
     53 H23        -44.2650    36.6910   -75.2030 h1         1 W5R       0.032283
     54 H24        -45.3800    37.6690   -74.2360 h1         1 W5R       0.032283
     55 H25        -52.5170    38.5010   -74.8630 hc         1 W5R       0.076200
     56 H26        -53.4740    38.3970   -73.3930 hc         1 W5R       0.076200
     57 H27        -52.2730    33.5430   -70.4560 ha         1 W5R       0.122500
     58 H28        -56.2710    37.6950   -73.9110 h1         1 W5R       0.032283
     59 H29        -55.4670    39.2120   -74.3640 h1         1 W5R       0.032283
     60 H30        -56.7950    38.5830   -75.3510 h1         1 W5R       0.032283
     61 H31        -55.4250    38.5200   -77.3570 h1         1 W5R       0.032283
     62 H32        -54.0110    39.1530   -76.5020 h1         1 W5R       0.032283
     63 H33        -53.9140    37.5960   -77.3500 h1         1 W5R       0.032283
     64 H34        -50.2100    34.2290   -74.1430 ha         1 W5R       0.122500
     65 H35        -50.7870    31.9710   -74.8940 ha         1 W5R       0.127000
     66 C17        -50.5720    37.2590   -75.5500 c3         1 W5R       0.204100
     67 C22        -53.1680    36.6420   -71.3790 c          1 W5R       0.620800
     68 C14        -47.4890    35.8520   -74.7550 c3         1 W5R       0.182300
     69 O          -47.2700    36.1650   -71.4950 o          1 W5R      -0.511000
@<TRIPOS>BOND
     1     1     7 1   
     2     1    18 1   
     3     1    19 1   
     4     2     3 1   
     5     2    17 ar  
     6     2    21 ar  
     7     3    11 1   
     8     3    23 1   
     9     3    32 1   
    10     4     9 1   
    11     4    11 2   
    12     4    13 1   
    13     5    29 1   
    14     5    33 1   
    15     5    34 1   
    16     5    35 1   
    17     6    31 1   
    18     6    41 1   
    19     6    42 1   
    20     6    43 1   
    21     7    16 1   
    22     7    44 1   
    23     7    45 1   
    24     8    10 ar  
    25     8    17 ar  
    26     8    46 1   
    27     9    24 1   
    28     9    66 1   
    29    10    20 1   
    30    10    22 ar  
    31    11    12 1   
    32    12    29 1   
    33    12    69 2   
    34    13    47 1   
    35    13    48 1   
    36    13    68 1   
    37    14    28 1   
    38    14    49 1   
    39    14    50 1   
    40    14    51 1   
    41    15    28 1   
    42    15    52 1   
    43    15    53 1   
    44    15    54 1   
    45    16    24 1   
    46    16    55 1   
    47    16    56 1   
    48    17    57 1   
    49    18    58 1   
    50    18    59 1   
    51    18    60 1   
    52    19    61 1   
    53    19    62 1   
    54    19    63 1   
    55    20    25 1   
    56    20    26 1   
    57    20    27 1   
    58    21    22 ar  
    59    21    64 1   
    60    22    65 1   
    61    23    24 2   
    62    23    67 1   
    63    28    68 1   
    64    30    67 2   
    65    31    67 1   
    66    36    68 1   
    67    37    68 1   
    68    38    66 1   
    69    39    66 1   
    70    40    66 1   
@<TRIPOS>SUBSTRUCTURE
     1 W5R         1 TEMP              0 ****  ****    0 ROOT
