@<TRIPOS>MOLECULE
W5R
   69    70     1     0     0
SMALL
No Charge or Current Charge


@<TRIPOS>ATOM
      1 N2         -55.0650    37.8590   -75.6920 n3         1 W5R      -0.728100
      2 C3         -51.2210    34.0740   -72.1050 ca         1 W5R      -0.031300
      3 C6         -50.9530    35.5580   -71.7950 c6         1 W5R       0.108000
      4 C9         -49.4830    36.6580   -73.4950 c2         1 W5R       0.208300
      5 C12        -47.7370    34.3430   -69.4710 c3         1 W5R       0.153900
      6 C23        -54.4630    35.5810   -69.5830 c3         1 W5R       0.153900
      7 C19        -54.0120    37.0950   -74.9700 c3         1 W5R       0.182300
      8 C1         -51.6520    31.7940   -71.3340 ca         1 W5R      -0.062000
      9 N          -50.6510    36.9770   -74.2300 nh         1 W5R      -0.555200
     10 C          -51.7220    31.3350   -72.6670 ca         1 W5R      -0.195300
     11 C10        -49.5700    35.9790   -72.3150 ce         1 W5R      -0.258900
     12 C11        -48.3860    35.5620   -71.4560 c          1 W5R       0.620800
     13 C13        -48.1520    37.0690   -74.1430 c3         1 W5R      -0.107700
     14 C15        -46.3150    37.1300   -76.7060 c3         1 W5R       0.156100
     15 C16        -45.0790    36.6240   -74.6250 c3         1 W5R       0.156100
     16 C18        -52.9560    37.9530   -74.2220 c3         1 W5R      -0.107700
     17 C2         -51.4070    33.1500   -71.0590 ca         1 W5R      -0.108500
     18 C20        -55.9690    38.6280   -74.8050 c3         1 W5R       0.156100
     19 C21        -54.5670    38.6490   -76.8420 c3         1 W5R       0.156100
     20 C24        -51.9780    29.8550   -72.9700 c3         1 W5R       0.343300
     21 C4         -51.2810    33.6150   -73.4360 ca         1 W5R      -0.108500
     22 C5         -51.5260    32.2600   -73.7150 ca         1 W5R      -0.062000
     23 C7         -52.0780    36.4400   -72.3570 ce         1 W5R      -0.258900
     24 C8         -51.8790    37.0990   -73.5350 c2         1 W5R       0.208300
     25 F          -50.8190    29.1620   -73.0460 f          1 W5R      -0.115333
     26 F1         -52.7340    29.2580   -72.0200 f          1 W5R      -0.115333
     27 F2         -52.6240    29.6740   -74.1450 f          1 W5R      -0.115333
     28 N1         -46.1680    36.2220   -75.5450 n3         1 W5R      -0.728100
     29 O1         -48.7610    34.8220   -70.3620 os         1 W5R      -0.448600
     30 O2         -54.3490    37.1450   -71.7980 o          1 W5R      -0.511000
     31 O3         -53.3080    35.6590   -70.4370 os         1 W5R      -0.448600
     32 H2         -50.9430    35.7110   -70.7070 hc         1 W5R       0.095700
     33 H3         -48.1840    33.7700   -68.6490 h1         1 W5R       0.048200
     34 H4         -47.0340    33.6870   -70.0010 h1         1 W5R       0.048200
     35 H5         -47.1740    35.1800   -69.0360 h1         1 W5R       0.048200
     36 H6         -48.1440    35.4580   -75.5930 h1         1 W5R       0.057700
     37 H7         -47.2660    35.0910   -74.1280 h1         1 W5R       0.057700
     38 H8         -51.4950    37.0420   -76.2140 h1         1 W5R       0.053033
     39 H9         -50.3690    38.3680   -75.8390 h1         1 W5R       0.053033
     40 H10        -49.7770    36.7260   -76.1860 h1         1 W5R       0.053033
     41 H11        -54.2760    34.8910   -68.7510 h1         1 W5R       0.048200
     42 H12        -54.7050    36.5650   -69.1600 h1         1 W5R       0.048200
     43 H13        -55.3370    35.2150   -70.1380 h1         1 W5R       0.048200
     44 H14        -54.4880    36.4200   -74.2470 h1         1 W5R       0.057700
     45 H15        -53.4900    36.4420   -75.6810 h1         1 W5R       0.057700
     46 H16        -51.7840    31.1020   -70.5050 ha         1 W5R       0.127000
     47 H17        -47.4870    37.4990   -73.3900 hc         1 W5R       0.076200
     48 H18        -48.2780    37.9010   -74.8400 hc         1 W5R       0.076200
     49 H19        -45.3740    37.1920   -77.2680 h1         1 W5R       0.032283
     50 H20        -47.0930    36.7650   -77.3900 h1         1 W5R       0.032283
     51 H21        -46.5850    38.1450   -76.3850 h1         1 W5R       0.032283
     52 H22        -44.9620    35.8890   -73.8170 h1         1 W5R       0.032283
     53 H23        -44.1240    36.6900   -75.1630 h1         1 W5R       0.032283
     54 H24        -45.2830    37.6040   -74.1740 h1         1 W5R       0.032283
     55 H25        -52.5200    38.6820   -74.9100 hc         1 W5R       0.076200
     56 H26        -53.4480    38.5960   -73.4890 hc         1 W5R       0.076200
     57 H27        -51.3590    33.4820   -70.0240 ha         1 W5R       0.122500
     58 H28        -56.3660    37.9880   -74.0060 h1         1 W5R       0.032283
     59 H29        -55.4440    39.4740   -74.3420 h1         1 W5R       0.032283
     60 H30        -56.8200    39.0260   -75.3730 h1         1 W5R       0.032283
     61 H31        -55.4070    39.0380   -77.4340 h1         1 W5R       0.032283
     62 H32        -53.9640    39.5030   -76.5070 h1         1 W5R       0.032283
     63 H33        -53.9490    38.0260   -77.5030 h1         1 W5R       0.032283
     64 H34        -51.1370    34.3070   -74.2600 ha         1 W5R       0.122500
     65 H35        -51.5600    31.9320   -74.7530 ha         1 W5R       0.127000
     66 C17        -50.5680    37.2990   -75.6900 c3         1 W5R       0.204100
     67 C22        -53.3600    36.4770   -71.5380 c          1 W5R       0.620800
     68 C14        -47.4470    35.8870   -74.8610 c3         1 W5R       0.182300
     69 O          -47.2160    35.8320   -71.6800 o          1 W5R      -0.511000
@<TRIPOS>BOND
     1     1     7 1   
     2     1    18 1   
     3     1    19 1   
     4     2     3 1   
     5     2    17 ar  
     6     2    21 ar  
     7     3    11 1   
     8     3    23 1   
     9     3    32 1   
    10     4     9 1   
    11     4    11 2   
    12     4    13 1   
    13     5    29 1   
    14     5    33 1   
    15     5    34 1   
    16     5    35 1   
    17     6    31 1   
    18     6    41 1   
    19     6    42 1   
    20     6    43 1   
    21     7    16 1   
    22     7    44 1   
    23     7    45 1   
    24     8    10 ar  
    25     8    17 ar  
    26     8    46 1   
    27     9    24 1   
    28     9    66 1   
    29    10    20 1   
    30    10    22 ar  
    31    11    12 1   
    32    12    29 1   
    33    12    69 2   
    34    13    47 1   
    35    13    48 1   
    36    13    68 1   
    37    14    28 1   
    38    14    49 1   
    39    14    50 1   
    40    14    51 1   
    41    15    28 1   
    42    15    52 1   
    43    15    53 1   
    44    15    54 1   
    45    16    24 1   
    46    16    55 1   
    47    16    56 1   
    48    17    57 1   
    49    18    58 1   
    50    18    59 1   
    51    18    60 1   
    52    19    61 1   
    53    19    62 1   
    54    19    63 1   
    55    20    25 1   
    56    20    26 1   
    57    20    27 1   
    58    21    22 ar  
    59    21    64 1   
    60    22    65 1   
    61    23    24 2   
    62    23    67 1   
    63    28    68 1   
    64    30    67 2   
    65    31    67 1   
    66    36    68 1   
    67    37    68 1   
    68    38    66 1   
    69    39    66 1   
    70    40    66 1   
@<TRIPOS>SUBSTRUCTURE
     1 W5R         1 TEMP              0 ****  ****    0 ROOT
