@<TRIPOS>MOLECULE
W5S
   32    34     1     0     0
SMALL
No Charge or Current Charge


@<TRIPOS>ATOM
      1 N12        -45.9280   -29.2960     2.7240 na         1 W5S      -0.188400
      2 C13        -44.9050   -29.5180     1.6830 c3         1 W5S       0.061300
      3 C15        -44.3530   -32.0150     2.1640 cc         1 W5S      -0.143000
      4 C17        -44.5760   -32.7320     0.0710 cd         1 W5S       0.129900
      5 C01        -48.0490   -29.3810     1.2330 c3         1 W5S      -0.036900
      6 C02        -47.3260   -29.2330     2.5490 cc         1 W5S      -0.056300
      7 C03        -47.8350   -29.0110     3.8240 cd         1 W5S      -0.098400
      8 C04        -49.2980   -28.8530     4.1650 c3         1 W5S      -0.020900
      9 C05        -46.7340   -28.9580     4.7700 ca         1 W5S      -0.252800
     10 C06        -46.6650   -28.7760     6.1570 ca         1 W5S       0.431900
     11 C09        -44.3890   -28.9650     6.0110 ca         1 W5S       0.177900
     12 C11        -45.5730   -29.1400     4.0580 ca         1 W5S       0.157500
     13 C14        -44.6870   -30.9700     1.3460 cd         1 W5S       0.090300
     14 C16        -44.2820   -33.1530     1.3390 cc         1 W5S      -0.191000
     15 N07        -47.7490   -28.5860     6.9480 nv         1 W5S      -1.075900
     16 N08        -45.4820   -28.7770     6.7890 nb         1 W5S      -0.303000
     17 N10        -44.3710   -29.1480     4.6700 nb         1 W5S      -0.234000
     18 O18        -44.8320   -31.3780     0.0390 os         1 W5S      -0.241000
     19 H131       -43.9520   -29.0870     2.0110 h1         1 W5S       0.079700
     20 H132       -45.2050   -28.9800     0.7750 h1         1 W5S       0.079700
     21 H171       -44.6350   -33.2770    -0.8620 h4         1 W5S       0.051100
     22 H012       -47.4250   -29.8700     0.4780 hc         1 W5S       0.050033
     23 H011       -48.9540   -29.9880     1.3500 hc         1 W5S       0.050033
     24 H013       -48.3470   -28.4000     0.8430 hc         1 W5S       0.050033
     25 H041       -49.6260   -29.6340     4.8610 hc         1 W5S       0.036700
     26 H042       -49.4900   -27.8790     4.6290 hc         1 W5S       0.036700
     27 H043       -49.9360   -28.9190     3.2760 hc         1 W5S       0.036700
     28 H091       -43.4250   -28.9680     6.5160 h5         1 W5S       0.042100
     29 H161       -44.0410   -34.1620     1.6570 ha         1 W5S       0.143000
     30 H072       -47.5950   -28.2350     7.8900 hn         1 W5S       0.494000
     31 H071       -48.6280   -28.3390     6.5060 hn         1 W5S       0.494000
     32 H151       -44.1790   -31.9830     3.2350 ha         1 W5S       0.149000
@<TRIPOS>BOND
     1     1     2 1   
     2     1     6 1   
     3     1    12 1   
     4     2    13 1   
     5     2    19 1   
     6     2    20 1   
     7     3    13 2   
     8     3    14 1   
     9     3    32 1   
    10     4    14 2   
    11     4    18 1   
    12     4    21 1   
    13     5     6 1   
    14     5    22 1   
    15     5    23 1   
    16     5    24 1   
    17     6     7 2   
    18     7     8 1   
    19     7     9 1   
    20     8    25 1   
    21     8    26 1   
    22     8    27 1   
    23     9    10 ar  
    24     9    12 ar  
    25    10    15 1   
    26    10    16 ar  
    27    11    16 ar  
    28    11    17 ar  
    29    11    28 1   
    30    12    17 ar  
    31    13    18 1   
    32    14    29 1   
    33    15    30 1   
    34    15    31 1   
@<TRIPOS>SUBSTRUCTURE
     1 W5S         1 TEMP              0 ****  ****    0 ROOT
