@<TRIPOS>MOLECULE
W5S
   32    34     1     0     0
SMALL
bcc


@<TRIPOS>ATOM
      1 N12        -45.9560   -29.2230     2.6830 na         1 W5S      -0.159100
      2 C13        -44.9620   -29.4700     1.6580 c3         1 W5S       0.032000
      3 C15        -43.5580   -31.6490     1.8100 cc         1 W5S      -0.226300
      4 C17        -45.1210   -32.9730     0.9520 cd         1 W5S       0.239600
      5 C01        -47.9210   -29.0530     1.1440 c3         1 W5S      -0.036900
      6 C02        -47.3260   -29.0870     2.5060 cc         1 W5S      -0.056300
      7 C03        -47.9320   -28.9710     3.7280 cd         1 W5S      -0.098400
      8 C04        -49.3860   -28.7870     4.0070 c3         1 W5S      -0.020900
      9 C05        -46.8820   -29.0480     4.7010 ca         1 W5S      -0.383400
     10 C06        -46.7630   -29.0030     6.1030 ca         1 W5S       0.760200
     11 C09        -44.4950   -29.2670     5.8700 ca         1 W5S       0.703900
     12 C11        -45.6800   -29.2090     4.0100 ca         1 W5S       0.485800
     13 C14        -44.6510   -30.9140     1.4970 cd         1 W5S       0.200000
     14 C16        -43.8630   -32.9980     1.4490 cc         1 W5S      -0.274300
     15 N07        -47.8170   -28.8710     6.9260 nv         1 W5S      -0.965500
     16 N08        -45.5530   -29.1170     6.6630 nb         1 W5S      -0.829000
     17 N10        -44.4660   -29.3240     4.5540 nb         1 W5S      -0.760000
     18 O18        -45.6070   -31.7140     0.9740 os         1 W5S      -0.329800
     19 H131       -44.0450   -28.9510     1.9330 h1         1 W5S       0.079700
     20 H132       -45.3090   -29.0290     0.7230 h1         1 W5S       0.079700
     21 H171       -45.7730   -33.7370     0.5610 h4         1 W5S       0.051100
     22 H012       -47.7270   -29.9700     0.5860 hc         1 W5S       0.050033
     23 H011       -49.0000   -28.9300     1.2030 hc         1 W5S       0.050033
     24 H013       -47.5300   -28.2230     0.5530 hc         1 W5S       0.050033
     25 H041       -49.7840   -29.5910     4.6310 hc         1 W5S       0.036700
     26 H042       -49.5860   -27.8450     4.5220 hc         1 W5S       0.036700
     27 H043       -49.9760   -28.7780     3.0920 hc         1 W5S       0.036700
     28 H091       -43.5390   -29.3520     6.3770 h5         1 W5S       0.042100
     29 H161       -43.2320   -33.8650     1.5540 ha         1 W5S       0.161000
     30 H072       -47.6560   -28.7410     7.9090 hn         1 W5S       0.438800
     31 H071       -48.7300   -28.6450     6.5760 hn         1 W5S       0.438800
     32 H151       -42.6470   -31.2770     2.2500 ha         1 W5S       0.167000
@<TRIPOS>BOND
     1     1     2 1   
     2     1     6 1   
     3     1    12 1   
     4     2    13 1   
     5     2    19 1   
     6     2    20 1   
     7     3    13 2   
     8     3    14 1   
     9     3    32 1   
    10     4    14 2   
    11     4    18 1   
    12     4    21 1   
    13     5     6 1   
    14     5    22 1   
    15     5    23 1   
    16     5    24 1   
    17     6     7 2   
    18     7     8 1   
    19     7     9 1   
    20     8    25 1   
    21     8    26 1   
    22     8    27 1   
    23     9    10 ar  
    24     9    12 ar  
    25    10    15 1   
    26    10    16 ar  
    27    11    16 ar  
    28    11    17 ar  
    29    11    28 1   
    30    12    17 ar  
    31    13    18 1   
    32    14    29 1   
    33    15    30 1   
    34    15    31 1   
@<TRIPOS>SUBSTRUCTURE
     1 W5S         1 TEMP              0 ****  ****    0 ROOT
