@<TRIPOS>MOLECULE
W5U
   30    30     1     0     0
SMALL
abcg2


@<TRIPOS>ATOM
      1 N1          22.5420    10.2330   -36.0320 ns         1 W5U      -0.510900
      2 C7          18.5860     7.7920   -37.2600 ca         1 W5U      -0.158000
      3 C8          18.1990     7.5860   -35.9460 ca         1 W5U       0.183000
      4 C9          18.8390     8.1850   -34.8770 ca         1 W5U      -0.158000
      5 C1          24.9060    11.3560   -34.1990 c3         1 W5U       0.145600
      6 C5          20.3320     9.2590   -36.4480 ca         1 W5U      -0.161600
      7 C6          19.6520     8.6460   -37.5030 ca         1 W5U      -0.047500
      8 C4          21.4170    10.2360   -36.7760 c          1 W5U       0.611700
      9 C3          23.0230     9.2000   -35.1130 c3         1 W5U       0.109000
     10 C2          24.5500     9.1170   -35.0900 c3         1 W5U       0.143800
     11 C10         19.9180     9.0200   -35.1370 ca         1 W5U      -0.047500
     12 O           21.2640    11.0400   -37.7030 o          1 W5U      -0.606100
     13 N           25.1740     9.9320   -34.0510 n3         1 W5U      -0.720600
     14 C           26.6090     9.6810   -34.0040 c3         1 W5U       0.145600
     15 H1          23.2050    10.9450   -36.3060 hn         1 W5U       0.314500
     16 H2          18.0580     7.3010   -38.0660 ha         1 W5U       0.136500
     17 H3          18.4960     8.0040   -33.8670 ha         1 W5U       0.136500
     18 H4          25.4160    11.9040   -33.4060 h1         1 W5U       0.034700
     19 H5          25.2550    11.7540   -35.1680 h1         1 W5U       0.034700
     20 H6          23.8380    11.5570   -34.1100 h1         1 W5U       0.034700
     21 H7          19.9630     8.8420   -38.5200 ha         1 W5U       0.129000
     22 H8          22.6690     9.3840   -34.0960 h1         1 W5U       0.056200
     23 H9          22.6190     8.2420   -35.4350 h1         1 W5U       0.056200
     24 H10         24.8290     8.0810   -34.8950 h1         1 W5U       0.042700
     25 H11         24.9400     9.3700   -36.0930 h1         1 W5U       0.042700
     26 H12         20.4180     9.5030   -34.3100 ha         1 W5U       0.129000
     27 H14         27.0520    10.2410   -33.1790 h1         1 W5U       0.034700
     28 H15         26.7940     8.6180   -33.8410 h1         1 W5U       0.034700
     29 H16         27.1200     9.9800   -34.9350 h1         1 W5U       0.034700
     30 F           17.1450     6.7710   -35.7000 f          1 W5U      -0.179000
@<TRIPOS>BOND
     1     1     8 1   
     2     1     9 1   
     3     1    15 1   
     4     2     3 ar  
     5     2     7 ar  
     6     2    16 1   
     7     3     4 ar  
     8     3    30 1   
     9     4    11 ar  
    10     4    17 1   
    11     5    13 1   
    12     5    18 1   
    13     5    19 1   
    14     5    20 1   
    15     6     7 ar  
    16     6     8 1   
    17     6    11 ar  
    18     7    21 1   
    19     8    12 2   
    20     9    10 1   
    21     9    22 1   
    22     9    23 1   
    23    10    13 1   
    24    10    24 1   
    25    10    25 1   
    26    11    26 1   
    27    13    14 1   
    28    14    27 1   
    29    14    28 1   
    30    14    29 1   
@<TRIPOS>SUBSTRUCTURE
     1 W5U         1 TEMP              0 ****  ****    0 ROOT
