@<TRIPOS>MOLECULE
W5U
   30    30     1     0     0
SMALL
No Charge or Current Charge


@<TRIPOS>ATOM
      1 N1          22.4540    10.3520   -35.8020 ns         1 W5U      -0.510900
      2 C7          18.5480     7.8230   -37.3690 ca         1 W5U      -0.158000
      3 C8          18.1710     7.4350   -36.0760 ca         1 W5U       0.183000
      4 C9          18.8230     7.9760   -34.9590 ca         1 W5U      -0.158000
      5 C1          25.0910    11.4720   -34.4250 c3         1 W5U       0.145600
      6 C5          20.2790     9.2810   -36.4330 ca         1 W5U      -0.161600
      7 C6          19.5920     8.7490   -37.5470 ca         1 W5U      -0.047500
      8 C4          21.3840    10.2890   -36.6680 c          1 W5U       0.611700
      9 C3          22.9320     9.2680   -34.9280 c3         1 W5U       0.109000
     10 C2          24.4760     9.0980   -34.9430 c3         1 W5U       0.143800
     11 C10         19.8680     8.9000   -35.1330 ca         1 W5U      -0.047500
     12 O           21.3260    11.0910   -37.5870 o          1 W5U      -0.606100
     13 N           25.2570    10.0390   -34.0860 n3         1 W5U      -0.720600
     14 C           26.6850     9.6550   -34.0030 c3         1 W5U       0.145600
     15 H1          23.1010    11.1070   -35.9920 hn         1 W5U       0.314500
     16 H2          18.0310     7.4090   -38.2300 ha         1 W5U       0.136500
     17 H3          18.5110     7.6850   -33.9590 ha         1 W5U       0.136500
     18 H4          25.7190    12.0990   -33.7770 h1         1 W5U       0.034700
     19 H5          25.3770    11.6660   -35.4680 h1         1 W5U       0.034700
     20 H6          24.0530    11.7960   -34.2800 h1         1 W5U       0.034700
     21 H7          19.8760     9.0440   -38.5560 ha         1 W5U       0.129000
     22 H8          22.5970     9.4500   -33.8990 h1         1 W5U       0.056200
     23 H9          22.4940     8.3220   -35.2690 h1         1 W5U       0.056200
     24 H10         24.6770     8.0740   -34.6010 h1         1 W5U       0.042700
     25 H11         24.8240     9.1510   -35.9840 h1         1 W5U       0.042700
     26 H12         20.3320     9.3370   -34.2520 ha         1 W5U       0.129000
     27 H14         27.2210    10.3000   -33.2940 h1         1 W5U       0.034700
     28 H15         26.7900     8.6180   -33.6580 h1         1 W5U       0.034700
     29 H16         27.1720     9.7430   -34.9830 h1         1 W5U       0.034700
     30 F           17.1660     6.5490   -35.9050 f          1 W5U      -0.179000
@<TRIPOS>BOND
     1     1     8 1   
     2     1     9 1   
     3     1    15 1   
     4     2     3 ar  
     5     2     7 ar  
     6     2    16 1   
     7     3     4 ar  
     8     3    30 1   
     9     4    11 ar  
    10     4    17 1   
    11     5    13 1   
    12     5    18 1   
    13     5    19 1   
    14     5    20 1   
    15     6     7 ar  
    16     6     8 1   
    17     6    11 ar  
    18     7    21 1   
    19     8    12 2   
    20     9    10 1   
    21     9    22 1   
    22     9    23 1   
    23    10    13 1   
    24    10    24 1   
    25    10    25 1   
    26    11    26 1   
    27    13    14 1   
    28    14    27 1   
    29    14    28 1   
    30    14    29 1   
@<TRIPOS>SUBSTRUCTURE
     1 W5U         1 TEMP              0 ****  ****    0 ROOT
