@<TRIPOS>MOLECULE
W5W
   45    47     1     0     0
SMALL
abcg2


@<TRIPOS>ATOM
      1 C2          11.4240     7.1760    -8.1880 c6         1 W5W       0.053300
      2 C4          11.6390     8.4980    -8.9500 c6         1 W5W       0.206000
      3 C6           9.5030     9.5970    -9.3590 c3         1 W5W       0.158900
      4 C7          11.9530     9.6530    -8.0050 c3         1 W5W      -0.118100
      5 C8          12.7960     8.2250    -9.9250 c6         1 W5W       0.170500
      6 C12         13.9640     6.9070    -8.1220 ce         1 W5W      -0.224400
      7 C18         12.7810     9.9650   -12.7930 ca         1 W5W      -0.192300
      8 C19         11.6470    10.8790   -12.4310 c3         1 W5W      -0.044800
      9 C23         14.9180     8.2380   -13.5280 ca         1 W5W       0.046700
     10 C24         16.0020     7.3140   -14.0080 c3         1 W5W      -0.056800
     11 O1          10.3280     7.2490    -7.3360 oh         1 W5W      -0.705000
     12 O5          10.5300     8.7310    -9.7900 os         1 W5W      -0.461000
     13 C10         13.9930     7.6140    -9.2660 c2         1 W5W       0.147900
     14 O11         15.1990     7.8290    -9.8310 os         1 W5W      -0.375200
     15 C13         15.1640     6.3110    -7.4570 c3         1 W5W      -0.030900
     16 C14         12.6810     6.7880    -7.4350 c          1 W5W       0.546300
     17 O15         12.5910     6.3680    -6.2970 o          1 W5W      -0.523100
     18 O16         13.1890     9.4360   -10.5400 os         1 W5W      -0.339100
     19 C20         13.1230     9.7510   -14.1320 ca         1 W5W       0.198100
     20 O21         12.4710    10.3440   -15.1380 oh         1 W5W      -0.525100
     21 C22         14.1460     8.8720   -14.4820 ca         1 W5W      -0.182000
     22 C25         14.6230     8.4680   -12.1670 ca         1 W5W      -0.271600
     23 C26         15.5690     8.0200   -11.1330 c          1 W5W       0.717700
     24 O27         16.7370     7.8430   -11.3390 o          1 W5W      -0.465000
     25 H1          11.2680     6.3880    -8.9460 h1         1 W5W       0.074700
     26 H2           8.7300     9.5540   -10.1250 h1         1 W5W       0.036033
     27 H3           9.0580     9.2970    -8.4080 h1         1 W5W       0.036033
     28 H4           9.8340    10.6350    -9.2770 h1         1 W5W       0.036033
     29 H5          11.1820     9.7600    -7.2430 hc         1 W5W       0.057033
     30 H6          12.9000     9.4980    -7.4890 hc         1 W5W       0.057033
     31 H7          12.0260    10.5980    -8.5400 hc         1 W5W       0.057033
     32 H8          12.4170     7.5260   -10.6860 h1         1 W5W       0.086700
     33 H10         10.7000    10.5330   -12.8510 hc         1 W5W       0.050367
     34 H11         11.5110    10.9480   -11.3570 hc         1 W5W       0.050367
     35 H12         11.8210    11.8930   -12.8000 hc         1 W5W       0.050367
     36 H13         16.9850     7.7780   -13.9430 hc         1 W5W       0.058033
     37 H14         16.0400     6.3880   -13.4380 hc         1 W5W       0.058033
     38 H15         15.8260     7.0580   -15.0520 hc         1 W5W       0.058033
     39 H16         10.6050     6.8960    -6.4780 ho         1 W5W       0.531000
     40 H18         14.9560     5.2920    -7.1320 hc         1 W5W       0.054033
     41 H19         16.0280     6.2820    -8.1140 hc         1 W5W       0.054033
     42 H20         15.4400     6.8820    -6.5680 hc         1 W5W       0.054033
     43 H21         11.7740    10.9290   -14.8190 ho         1 W5W       0.478000
     44 H22         14.3430     8.6980   -15.5330 ha         1 W5W       0.138000
     45 C17         13.5340     9.2890   -11.8440 ca         1 W5W       0.194100
@<TRIPOS>BOND
     1     1     2 1   
     2     1    11 1   
     3     1    16 1   
     4     1    25 1   
     5     2     4 1   
     6     2     5 1   
     7     2    12 1   
     8     3    12 1   
     9     3    26 1   
    10     3    27 1   
    11     3    28 1   
    12     4    29 1   
    13     4    30 1   
    14     4    31 1   
    15     5    13 1   
    16     5    18 1   
    17     5    32 1   
    18     6    13 2   
    19     6    15 1   
    20     6    16 1   
    21     7     8 1   
    22     7    19 ar  
    23     7    45 ar  
    24     8    33 1   
    25     8    34 1   
    26     8    35 1   
    27     9    10 1   
    28     9    21 ar  
    29     9    22 ar  
    30    10    36 1   
    31    10    37 1   
    32    10    38 1   
    33    11    39 1   
    34    13    14 1   
    35    14    23 1   
    36    15    40 1   
    37    15    41 1   
    38    15    42 1   
    39    16    17 2   
    40    18    45 1   
    41    19    20 1   
    42    19    21 ar  
    43    20    43 1   
    44    21    44 1   
    45    22    23 1   
    46    22    45 ar  
    47    23    24 2   
@<TRIPOS>SUBSTRUCTURE
     1 W5W         1 TEMP              0 ****  ****    0 ROOT
