@<TRIPOS>MOLECULE
W5W
   45    47     1     0     0
SMALL
No Charge or Current Charge


@<TRIPOS>ATOM
      1 C2          11.2410     7.5310    -8.1160 c6         1 W5W       0.053300
      2 C4          11.6970     8.8810    -8.8120 c6         1 W5W       0.206000
      3 C6           9.4750    10.0160    -8.4450 c3         1 W5W       0.158900
      4 C7          12.4480     9.8500    -7.8320 c3         1 W5W      -0.118100
      5 C8          12.6250     8.5090   -10.0210 c6         1 W5W       0.170500
      6 C12         13.6780     6.7640    -8.6110 ce         1 W5W      -0.224400
      7 C18         12.6680     9.4900   -13.1940 ca         1 W5W      -0.192300
      8 C19         11.2620    10.0960   -13.0910 c3         1 W5W      -0.044800
      9 C23         15.2550     8.3400   -13.3720 ca         1 W5W       0.046700
     10 C24         16.6360     7.7080   -13.5220 c3         1 W5W      -0.056800
     11 O1          10.7750     7.7020    -6.7420 oh         1 W5W      -0.705000
     12 O5          10.5390     9.6050    -9.3330 os         1 W5W      -0.461000
     13 C10         13.8620     7.7610    -9.5060 c2         1 W5W       0.147900
     14 O11         15.1230     8.2730    -9.7150 os         1 W5W      -0.375200
     15 C13         14.8230     6.1310    -7.8240 c3         1 W5W      -0.030900
     16 C14         12.2840     6.3710    -8.2400 c          1 W5W       0.546300
     17 O15         12.0110     5.2400    -7.8540 o          1 W5W      -0.523100
     18 O16         12.9800     9.6500   -10.8200 os         1 W5W      -0.339100
     19 C20         13.1760     9.0530   -14.4330 ca         1 W5W       0.198100
     20 O21         12.4370     9.1600   -15.5740 oh         1 W5W      -0.525100
     21 C22         14.4500     8.4820   -14.5140 ca         1 W5W      -0.182000
     22 C25         14.7580     8.7740   -12.1200 ca         1 W5W      -0.271600
     23 C26         15.6290     8.7770   -10.8920 c          1 W5W       0.717700
     24 O27         16.7650     9.2260   -10.9290 o          1 W5W      -0.465000
     25 H1          10.4040     7.1590    -8.7260 h1         1 W5W       0.074700
     26 H2           8.7080    10.5600    -9.0110 h1         1 W5W       0.036033
     27 H3           8.9860     9.1520    -7.9790 h1         1 W5W       0.036033
     28 H4           9.8380    10.6860    -7.6580 h1         1 W5W       0.036033
     29 H5          11.8460    10.1120    -6.9550 hc         1 W5W       0.057033
     30 H6          13.3730     9.4060    -7.4470 hc         1 W5W       0.057033
     31 H7          12.7190    10.7860    -8.3340 hc         1 W5W       0.057033
     32 H8          12.0550     7.8240   -10.6680 h1         1 W5W       0.086700
     33 H10         10.4920     9.3360   -13.2710 hc         1 W5W       0.050367
     34 H11         11.0590    10.5330   -12.1070 hc         1 W5W       0.050367
     35 H12         11.1200    10.9040   -13.8200 hc         1 W5W       0.050367
     36 H13         17.4220     8.4720   -13.5060 hc         1 W5W       0.058033
     37 H14         16.8390     6.9920   -12.7170 hc         1 W5W       0.058033
     38 H15         16.7290     7.1610   -14.4670 hc         1 W5W       0.058033
     39 H16         10.5230     6.8080    -6.4010 ho         1 W5W       0.531000
     40 H18         14.4850     5.7340    -6.8590 hc         1 W5W       0.054033
     41 H19         15.2720     5.3000    -8.3820 hc         1 W5W       0.054033
     42 H20         15.6210     6.8510    -7.6060 hc         1 W5W       0.054033
     43 H21         11.5680     9.5470   -15.3400 ho         1 W5W       0.478000
     44 H22         14.8170     8.1480   -15.4810 ha         1 W5W       0.138000
     45 C17         13.4780     9.3360   -12.0480 ca         1 W5W       0.194100
@<TRIPOS>BOND
     1     1     2 1   
     2     1    11 1   
     3     1    16 1   
     4     1    25 1   
     5     2     4 1   
     6     2     5 1   
     7     2    12 1   
     8     3    12 1   
     9     3    26 1   
    10     3    27 1   
    11     3    28 1   
    12     4    29 1   
    13     4    30 1   
    14     4    31 1   
    15     5    13 1   
    16     5    18 1   
    17     5    32 1   
    18     6    13 2   
    19     6    15 1   
    20     6    16 1   
    21     7     8 1   
    22     7    19 ar  
    23     7    45 ar  
    24     8    33 1   
    25     8    34 1   
    26     8    35 1   
    27     9    10 1   
    28     9    21 ar  
    29     9    22 ar  
    30    10    36 1   
    31    10    37 1   
    32    10    38 1   
    33    11    39 1   
    34    13    14 1   
    35    14    23 1   
    36    15    40 1   
    37    15    41 1   
    38    15    42 1   
    39    16    17 2   
    40    18    45 1   
    41    19    20 1   
    42    19    21 ar  
    43    20    43 1   
    44    21    44 1   
    45    22    23 1   
    46    22    45 ar  
    47    23    24 2   
@<TRIPOS>SUBSTRUCTURE
     1 W5W         1 TEMP              0 ****  ****    0 ROOT
