@<TRIPOS>MOLECULE
W5X
   48    51     1     0     0
SMALL
No Charge or Current Charge


@<TRIPOS>ATOM
      1 C11         99.6570   105.0300   103.9810 c5         1 W5X       0.189800
      2 C12         98.0180   104.3770   105.6340 c5         1 W5X       0.189800
      3 C13        100.5690   105.9480   106.9130 c3         1 W5X       0.140000
      4 C14         97.4300   106.1960   104.0030 c3         1 W5X       0.161100
      5 C08        100.3510   104.0680   104.9650 cx         1 W5X      -0.136200
      6 C09         99.3410   103.6800   106.0100 cx         1 W5X      -0.136200
      7 C10        100.5690   104.4940   106.4120 cx         1 W5X      -0.091700
      8 C15         99.1520   106.1800   108.9620 c3         1 W5X       0.144300
      9 C16        101.6580   106.0770   109.2540 c          1 W5X       0.547600
     10 C17         98.5780   107.5840   108.8200 ca         1 W5X      -0.117300
     11 C18        103.0630   105.8630   108.7020 cc         1 W5X       0.176500
     12 C19         97.6790   107.8820   107.7750 ca         1 W5X      -0.073000
     13 C20         98.9490   108.5980   109.7260 ca         1 W5X      -0.059000
     14 C21        104.1460   105.9220   109.5480 cd         1 W5X      -0.154000
     15 C22         97.1580   109.1790   107.6330 ca         1 W5X       0.060000
     16 C23         98.4260   109.8960   109.5880 ca         1 W5X      -0.154000
     17 C24        104.8090   105.4770   107.4660 cd         1 W5X       0.385400
     18 C25         97.5340   110.1860   108.5430 ca         1 W5X       0.181000
     19 F02         97.0410   111.4400   108.4200 f          1 W5X      -0.165000
     20 N04         98.4800   105.4930   104.7670 n3         1 W5X      -0.745600
     21 N05        100.5160   106.0460   108.3920 n          1 W5X      -0.387800
     22 N06        103.4890   105.5830   107.4180 nc         1 W5X      -0.656000
     23 N07        105.2570   105.6780   108.7610 na         1 W5X      -0.165500
     24 O03        101.4900   106.2750   110.4570 o          1 W5X      -0.631100
     25 Cl01        96.0430   109.5230   106.3110 cl         1 W5X      -0.181000
     26 H1         100.2980   105.8690   103.6760 h1         1 W5X       0.039950
     27 H2          99.3390   104.5040   103.0700 h1         1 W5X       0.039950
     28 H3          97.4580   104.7400   106.5060 h1         1 W5X       0.039950
     29 H4          97.3580   103.6960   105.0770 h1         1 W5X       0.039950
     30 H5         101.4370   106.4880   106.5230 h1         1 W5X       0.070700
     31 H6          99.7150   106.5020   106.5190 h1         1 W5X       0.070700
     32 H7          96.6460   106.5680   104.6760 h1         1 W5X       0.032033
     33 H8          97.8540   107.0550   103.4660 h1         1 W5X       0.032033
     34 H9          96.9660   105.5240   103.2690 h1         1 W5X       0.032033
     35 H10        101.0110   103.3000   104.5680 hc         1 W5X       0.089200
     36 H11         99.3060   102.6440   106.3390 hc         1 W5X       0.089200
     37 H12        101.3360   103.9290   106.9350 hc         1 W5X       0.090700
     38 H13         98.4910   105.4670   108.4530 h1         1 W5X       0.067200
     39 H14         99.1460   105.8910   110.0210 h1         1 W5X       0.067200
     40 H15         97.3870   107.1110   107.0660 ha         1 W5X       0.145000
     41 H16         99.6430   108.3790   110.5350 ha         1 W5X       0.140000
     42 H17        104.1960   106.1130   110.6140 h4         1 W5X       0.174000
     43 H18         98.7140   110.6780   110.2870 ha         1 W5X       0.134000
     44 H19        105.4800   105.2650   106.6420 h5         1 W5X       0.056100
     45 H20        107.2430   104.9930   108.5510 h1         1 W5X       0.057033
     46 H21        107.0730   106.6560   109.1900 h1         1 W5X       0.057033
     47 H22        106.7040   105.2510   110.2360 h1         1 W5X       0.057033
     48 C26        106.6550   105.6420   109.2120 c3         1 W5X       0.056900
@<TRIPOS>BOND
     1     1     5 1   
     2     1    20 1   
     3     1    26 1   
     4     1    27 1   
     5     2     6 1   
     6     2    20 1   
     7     2    28 1   
     8     2    29 1   
     9     3     7 1   
    10     3    21 1   
    11     3    30 1   
    12     3    31 1   
    13     4    20 1   
    14     4    32 1   
    15     4    33 1   
    16     4    34 1   
    17     5     6 1   
    18     5     7 1   
    19     5    35 1   
    20     6     7 1   
    21     6    36 1   
    22     7    37 1   
    23     8    10 1   
    24     8    21 1   
    25     8    38 1   
    26     8    39 1   
    27     9    11 1   
    28     9    21 1   
    29     9    24 2   
    30    10    12 ar  
    31    10    13 ar  
    32    11    14 2   
    33    11    22 1   
    34    12    15 ar  
    35    12    40 1   
    36    13    16 ar  
    37    13    41 1   
    38    14    23 1   
    39    14    42 1   
    40    15    18 ar  
    41    15    25 1   
    42    16    18 ar  
    43    16    43 1   
    44    17    22 2   
    45    17    23 1   
    46    17    44 1   
    47    18    19 1   
    48    23    48 1   
    49    45    48 1   
    50    46    48 1   
    51    47    48 1   
@<TRIPOS>SUBSTRUCTURE
     1 W5X         1 TEMP              0 ****  ****    0 ROOT
