@<TRIPOS>MOLECULE
W5X
   48    51     1     0     0
SMALL
abcg2


@<TRIPOS>ATOM
      1 C11         99.5360   105.1250   104.0550 c5         1 W5X       0.189800
      2 C12         97.9770   104.4670   105.6750 c5         1 W5X       0.189800
      3 C13        100.6770   105.8390   106.8840 c3         1 W5X       0.140000
      4 C14         97.3480   106.1960   104.0810 c3         1 W5X       0.161100
      5 C08        100.2350   104.1050   104.9260 cx         1 W5X      -0.136200
      6 C09         99.2460   103.7160   105.9890 cx         1 W5X      -0.136200
      7 C10        100.5170   104.4330   106.3610 cx         1 W5X      -0.091700
      8 C15         99.2100   106.0650   108.8510 c3         1 W5X       0.144300
      9 C16        101.5950   106.0380   109.2060 c          1 W5X       0.547600
     10 C17         98.6880   107.4790   108.7660 ca         1 W5X      -0.117300
     11 C18        102.9860   105.8040   108.7580 cc         1 W5X       0.176500
     12 C19         98.0070   107.9030   107.6290 ca         1 W5X      -0.073000
     13 C20         98.8860   108.3850   109.8060 ca         1 W5X      -0.059000
     14 C21        104.0760   106.2330   109.4750 cd         1 W5X      -0.154000
     15 C22         97.5460   109.2060   107.5280 ca         1 W5X       0.060000
     16 C23         98.4210   109.6880   109.7150 ca         1 W5X      -0.154000
     17 C24        104.7080   105.1060   107.7220 cd         1 W5X       0.385400
     18 C25         97.7560   110.0880   108.5730 ca         1 W5X       0.181000
     19 F02         97.3010   111.3390   108.4720 f          1 W5X      -0.165000
     20 N04         98.4010   105.5790   104.8440 n3         1 W5X      -0.745600
     21 N05        100.5650   105.9290   108.3350 n          1 W5X      -0.387800
     22 N06        103.4050   105.0970   107.6650 nc         1 W5X      -0.656000
     23 N07        105.1630   105.7870   108.8000 na         1 W5X      -0.165500
     24 O03        101.4140   106.3230   110.3880 o          1 W5X      -0.631100
     25 CL01        96.7080   109.7400   106.1200 cl         1 W5X      -0.181000
     26 H1         100.1640   105.9740   103.7670 h1         1 W5X       0.039950
     27 H2          99.2220   104.6260   103.1240 h1         1 W5X       0.039950
     28 H3          97.4310   104.8280   106.5530 h1         1 W5X       0.039950
     29 H4          97.2960   103.7790   105.1450 h1         1 W5X       0.039950
     30 H5         101.6460   106.2230   106.5770 h1         1 W5X       0.070700
     31 H6          99.9310   106.5000   106.4460 h1         1 W5X       0.070700
     32 H7          96.5620   106.5570   104.7460 h1         1 W5X       0.032033
     33 H8          97.7340   107.0580   103.5350 h1         1 W5X       0.032033
     34 H9          96.8860   105.5120   103.3520 h1         1 W5X       0.032033
     35 H10        100.8580   103.3710   104.4300 hc         1 W5X       0.089200
     36 H11         99.1420   102.6860   106.3090 hc         1 W5X       0.089200
     37 H12        101.2500   103.7640   106.8000 hc         1 W5X       0.090700
     38 H13         98.5690   105.4000   108.2710 h1         1 W5X       0.067200
     39 H14         99.1760   105.7150   109.8810 h1         1 W5X       0.067200
     40 H15         97.8400   107.2190   106.8060 ha         1 W5X       0.145000
     41 H16         99.4090   108.0710   110.6990 ha         1 W5X       0.140000
     42 H17        104.1590   106.8080   110.3830 h4         1 W5X       0.174000
     43 H18         98.5690   110.3900   110.5250 ha         1 W5X       0.134000
     44 H19        105.3780   104.6350   107.0190 h5         1 W5X       0.056100
     45 H20        107.1830   105.4770   108.4510 h1         1 W5X       0.057033
     46 H21        106.7900   107.0610   109.1320 h1         1 W5X       0.057033
     47 H22        106.7440   105.6150   110.1580 h1         1 W5X       0.057033
     48 C26        106.5480   106.0010   109.1600 c3         1 W5X       0.056900
@<TRIPOS>BOND
     1     1     5 1   
     2     1    20 1   
     3     1    26 1   
     4     1    27 1   
     5     2     6 1   
     6     2    20 1   
     7     2    28 1   
     8     2    29 1   
     9     3     7 1   
    10     3    21 1   
    11     3    30 1   
    12     3    31 1   
    13     4    20 1   
    14     4    32 1   
    15     4    33 1   
    16     4    34 1   
    17     5     6 1   
    18     5     7 1   
    19     5    35 1   
    20     6     7 1   
    21     6    36 1   
    22     7    37 1   
    23     8    10 1   
    24     8    21 1   
    25     8    38 1   
    26     8    39 1   
    27     9    11 1   
    28     9    21 1   
    29     9    24 2   
    30    10    12 ar  
    31    10    13 ar  
    32    11    14 2   
    33    11    22 1   
    34    12    15 ar  
    35    12    40 1   
    36    13    16 ar  
    37    13    41 1   
    38    14    23 1   
    39    14    42 1   
    40    15    18 ar  
    41    15    25 1   
    42    16    18 ar  
    43    16    43 1   
    44    17    22 2   
    45    17    23 1   
    46    17    44 1   
    47    18    19 1   
    48    23    48 1   
    49    45    48 1   
    50    46    48 1   
    51    47    48 1   
@<TRIPOS>SUBSTRUCTURE
     1 W5X         1 TEMP              0 ****  ****    0 ROOT
