@<TRIPOS>MOLECULE
W5Y
   57    60     1     0     0
SMALL
No Charge or Current Charge


@<TRIPOS>ATOM
      1 CD1        -13.5150     4.2930   -62.9040 ca         1 W5Y      -0.097500
      2 CE1        -14.8180     3.8660   -62.5920 ca         1 W5Y      -0.107500
      3 CZ         -15.9210     4.6710   -62.9240 ca         1 W5Y      -0.105000
      4 CE2        -15.7200     5.9020   -63.5700 ca         1 W5Y      -0.107500
      5 CD2        -14.4180     6.3290   -63.8830 ca         1 W5Y      -0.097500
      6 CG         -13.3080     5.5260   -63.5530 ca         1 W5Y      -0.074300
      7 CB         -11.8960     6.0130   -63.8610 c3         1 W5Y      -0.020100
      8 CA         -11.4330     5.7460   -65.3170 c3         1 W5Y       0.101500
      9 N          -11.2890     4.2700   -65.5850 n8         1 W5Y      -0.987200
     10 C          -10.1550     6.6040   -65.6220 c          1 W5Y       0.581100
     11 O           -9.1070     6.4470   -65.0120 o          1 W5Y      -0.528100
     12 NAT        -10.3020     7.5240   -66.6160 ns         1 W5Y      -0.624300
     13 SBI         -9.2850     8.7870   -66.9690 s6         1 W5Y       1.430500
     14 OAD         -7.9010     8.3040   -66.9890 o          1 W5Y      -0.537500
     15 OAE         -9.8560     9.5140   -68.1070 o          1 W5Y      -0.537500
     16 O5          -9.5310     9.6430   -65.5910 os         1 W5Y      -0.566700
     17 C5         -10.5060    10.7040   -65.6450 c3         1 W5Y       0.209600
     18 C4         -10.8950    11.1090   -64.2000 c5         1 W5Y       0.147300
     19 O4         -11.6190    10.0390   -63.5520 os         1 W5Y      -0.427000
     20 C3          -9.7190    11.3930   -63.2230 c5         1 W5Y       0.153300
     21 O3          -9.0900    12.6610   -63.4270 oh         1 W5Y      -0.686000
     22 C2         -10.5020    11.4030   -61.8770 c5         1 W5Y       0.093300
     23 O2         -11.1360    12.6900   -61.6900 oh         1 W5Y      -0.692000
     24 C1         -11.5350    10.2320   -62.1200 c5         1 W5Y       0.284300
     25 N9         -11.2410     8.9370   -61.5050 na         1 W5Y      -0.307300
     26 C8          -9.9700     8.3930   -61.2880 cc         1 W5Y       0.423700
     27 N7         -10.0440     7.2070   -60.6550 nd         1 W5Y      -0.547100
     28 C7         -11.4190     7.0170   -60.4860 ca         1 W5Y      -0.094600
     29 C9         -12.1540     8.0560   -60.9980 ca         1 W5Y       0.117500
     30 N3         -13.5010     8.0760   -60.9510 nb         1 W5Y      -0.236000
     31 C10        -14.0830     7.0000   -60.3680 ca         1 W5Y       0.182900
     32 N1         -13.4520     5.9290   -59.8290 nb         1 W5Y      -0.302000
     33 C6         -12.1110     5.9420   -59.8920 ca         1 W5Y       0.450900
     34 N6         -11.4750     4.8680   -59.3520 nv         1 W5Y      -1.061900
     35 H1         -12.6660     3.6670   -62.6390 ha         1 W5Y       0.107000
     36 H2         -14.9710     2.9130   -62.0900 ha         1 W5Y       0.113500
     37 H3         -16.9280     4.3410   -62.6810 ha         1 W5Y       0.114000
     38 H4         -16.5730     6.5280   -63.8250 ha         1 W5Y       0.113500
     39 H5         -14.2710     7.2880   -64.3740 ha         1 W5Y       0.107000
     40 H6         -11.8510     7.0940   -63.6830 hc         1 W5Y       0.050700
     41 H7         -11.1760     5.5680   -63.1630 hc         1 W5Y       0.050700
     42 H8         -12.2270     6.1210   -65.9790 h1         1 W5Y       0.079700
     43 H9         -11.0040     4.1210   -66.5620 hn         1 W5Y       0.417000
     44 H10        -10.4890     3.9090   -65.0510 hn         1 W5Y       0.417000
     45 H12        -11.1850     7.6330   -67.0810 hn         1 W5Y       0.348500
     46 H13        -10.1010    11.5800   -66.1690 h1         1 W5Y       0.072700
     47 H14        -11.4230    10.3890   -66.1610 h1         1 W5Y       0.072700
     48 H15        -11.5620    11.9800   -64.2630 h1         1 W5Y       0.091700
     49 H16         -8.9790    10.5810   -63.2490 h1         1 W5Y       0.050700
     50 H17         -9.6390    13.2710   -62.8700 ho         1 W5Y       0.524000
     51 H18         -9.8360    11.1820   -61.0300 h1         1 W5Y       0.070700
     52 H19        -11.5250    12.7090   -60.7820 ho         1 W5Y       0.517000
     53 H20        -12.5180    10.5280   -61.7320 h2         1 W5Y       0.108700
     54 H21         -9.0590     8.8910   -61.6000 h5         1 W5Y       0.083800
     55 H22        -15.1710     6.9970   -60.3280 h5         1 W5Y       0.045100
     56 H23        -12.0120     4.0190   -59.2080 hn         1 W5Y       0.507000
     57 H24        -10.4890     4.7560   -59.5740 hn         1 W5Y       0.507000
@<TRIPOS>BOND
     1     1     2 ar  
     2     1     6 ar  
     3     1    35 1   
     4     2     3 ar  
     5     2    36 1   
     6     3     4 ar  
     7     3    37 1   
     8     4     5 ar  
     9     4    38 1   
    10     5     6 ar  
    11     5    39 1   
    12     6     7 1   
    13     7     8 1   
    14     7    40 1   
    15     7    41 1   
    16     8     9 1   
    17     8    10 1   
    18     8    42 1   
    19     9    43 1   
    20     9    44 1   
    21    10    11 2   
    22    10    12 1   
    23    12    13 1   
    24    12    45 1   
    25    13    14 2   
    26    13    15 2   
    27    13    16 1   
    28    16    17 1   
    29    17    18 1   
    30    17    46 1   
    31    17    47 1   
    32    18    19 1   
    33    18    20 1   
    34    18    48 1   
    35    19    24 1   
    36    20    21 1   
    37    20    22 1   
    38    20    49 1   
    39    21    50 1   
    40    22    23 1   
    41    22    24 1   
    42    22    51 1   
    43    23    52 1   
    44    24    25 1   
    45    24    53 1   
    46    25    26 1   
    47    25    29 1   
    48    26    27 2   
    49    26    54 1   
    50    27    28 1   
    51    28    29 ar  
    52    28    33 ar  
    53    29    30 ar  
    54    30    31 ar  
    55    31    32 ar  
    56    31    55 1   
    57    32    33 ar  
    58    33    34 1   
    59    34    56 1   
    60    34    57 1   
@<TRIPOS>SUBSTRUCTURE
     1 W5Y         1 TEMP              0 ****  ****    0 ROOT
