@<TRIPOS>MOLECULE
W5Y
   57    60     1     0     0
SMALL
bcc


@<TRIPOS>ATOM
      1 CD1        -16.0620     4.3970   -67.4040 ca         1 W5Y      -0.115500
      2 CE1        -16.8410     4.0690   -68.5070 ca         1 W5Y      -0.125500
      3 CZ         -16.6960     4.7710   -69.6960 ca         1 W5Y      -0.123000
      4 CE2        -15.7720     5.8060   -69.7730 ca         1 W5Y      -0.125500
      5 CD2        -14.9990     6.1310   -68.6670 ca         1 W5Y      -0.115500
      6 CG         -15.1320     5.4300   -67.4700 ca         1 W5Y      -0.074300
      7 CB         -14.2710     5.7820   -66.2910 c3         1 W5Y      -0.020100
      8 CA         -12.8550     5.1860   -66.4180 c3         1 W5Y       0.101500
      9 N          -12.9130     3.7510   -66.4510 n8         1 W5Y      -0.876800
     10 C          -11.9820     5.7300   -65.2850 c          1 W5Y       0.648100
     11 O          -11.6610     5.0970   -64.3120 o          1 W5Y      -0.528100
     12 NAT        -11.5970     7.0480   -65.4600 ns         1 W5Y      -0.691300
     13 SBI        -10.5540     7.8540   -64.4500 s6         1 W5Y       1.572100
     14 OAD         -9.3720     7.0760   -64.2050 o          1 W5Y      -0.608300
     15 OAE        -10.4730     9.1890   -64.9870 o          1 W5Y      -0.608300
     16 O5         -11.3100     7.8490   -63.0580 os         1 W5Y      -0.543500
     17 C5         -12.5140     8.6160   -62.8560 c3         1 W5Y       0.186400
     18 C4         -12.3110     9.6270   -61.7560 c5         1 W5Y       0.124100
     19 O4         -11.9050     8.9760   -60.5620 os         1 W5Y      -0.380600
     20 C3         -11.2480    10.6970   -61.9950 c5         1 W5Y       0.130100
     21 O3         -11.7410    11.6730   -62.8560 oh         1 W5Y      -0.563800
     22 C2         -10.9500    11.1430   -60.5600 c5         1 W5Y       0.070100
     23 O2         -11.9450    12.0390   -60.1590 oh         1 W5Y      -0.569800
     24 C1         -11.0670     9.8030   -59.8060 c5         1 W5Y       0.231800
     25 N9          -9.7840     9.1460   -59.6190 na         1 W5Y      -0.278000
     26 C8          -9.1210     8.2860   -60.4530 cc         1 W5Y       0.423700
     27 N7          -7.9620     7.9140   -59.9950 nd         1 W5Y      -0.547100
     28 C7          -7.8430     8.5630   -58.7950 ca         1 W5Y      -0.225200
     29 C9          -8.9660     9.3350   -58.5420 ca         1 W5Y       0.445800
     30 N3          -9.1840    10.0920   -57.4690 nb         1 W5Y      -0.762000
     31 C10         -8.1770    10.0290   -56.6160 ca         1 W5Y       0.708900
     32 N1          -7.0450     9.3370   -56.7230 nb         1 W5Y      -0.828000
     33 C6          -6.8390     8.5860   -57.8100 ca         1 W5Y       0.779200
     34 N6          -5.6970     7.9040   -57.9270 nv         1 W5Y      -0.951500
     35 H1         -16.1820     3.8460   -66.4790 ha         1 W5Y       0.125000
     36 H2         -17.5600     3.2640   -68.4370 ha         1 W5Y       0.131500
     37 H3         -17.3020     4.5170   -70.5560 ha         1 W5Y       0.132000
     38 H4         -15.6560     6.3630   -70.6940 ha         1 W5Y       0.131500
     39 H5         -14.2840     6.9450   -68.7340 ha         1 W5Y       0.125000
     40 H6         -14.2080     6.8680   -66.1970 hc         1 W5Y       0.050700
     41 H7         -14.7240     5.4130   -65.3660 hc         1 W5Y       0.050700
     42 H8         -12.4220     5.5340   -67.3620 h1         1 W5Y       0.079700
     43 H9         -11.9930     3.3570   -66.6020 hn         1 W5Y       0.361800
     44 H10        -13.2490     3.3860   -65.5690 hn         1 W5Y       0.361800
     45 H12        -11.8630     7.5530   -66.2980 hn         1 W5Y       0.348500
     46 H13        -12.8260     9.1350   -63.7640 h1         1 W5Y       0.072700
     47 H14        -13.2930     7.9000   -62.5930 h1         1 W5Y       0.072700
     48 H15        -13.2850    10.1160   -61.6140 h1         1 W5Y       0.091700
     49 H16        -10.3350    10.2330   -62.3900 h1         1 W5Y       0.050700
     50 H17        -11.0060    12.2020   -63.1820 ho         1 W5Y       0.425000
     51 H18         -9.9450    11.5670   -60.4500 h1         1 W5Y       0.070700
     52 H19        -11.7480    12.3380   -59.2650 ho         1 W5Y       0.418000
     53 H20        -11.4780     9.9570   -58.8040 h2         1 W5Y       0.108700
     54 H21         -9.5440     7.9550   -61.3860 h5         1 W5Y       0.083800
     55 H22         -8.2790    10.6170   -55.7100 h5         1 W5Y       0.045100
     56 H23         -5.0400     7.8910   -57.1660 hn         1 W5Y       0.451800
     57 H24         -5.5490     7.2710   -58.6930 hn         1 W5Y       0.451800
@<TRIPOS>BOND
     1     1     2 ar  
     2     1     6 ar  
     3     1    35 1   
     4     2     3 ar  
     5     2    36 1   
     6     3     4 ar  
     7     3    37 1   
     8     4     5 ar  
     9     4    38 1   
    10     5     6 ar  
    11     5    39 1   
    12     6     7 1   
    13     7     8 1   
    14     7    40 1   
    15     7    41 1   
    16     8     9 1   
    17     8    10 1   
    18     8    42 1   
    19     9    43 1   
    20     9    44 1   
    21    10    11 2   
    22    10    12 1   
    23    12    13 1   
    24    12    45 1   
    25    13    14 2   
    26    13    15 2   
    27    13    16 1   
    28    16    17 1   
    29    17    18 1   
    30    17    46 1   
    31    17    47 1   
    32    18    19 1   
    33    18    20 1   
    34    18    48 1   
    35    19    24 1   
    36    20    21 1   
    37    20    22 1   
    38    20    49 1   
    39    21    50 1   
    40    22    23 1   
    41    22    24 1   
    42    22    51 1   
    43    23    52 1   
    44    24    25 1   
    45    24    53 1   
    46    25    26 1   
    47    25    29 1   
    48    26    27 2   
    49    26    54 1   
    50    27    28 1   
    51    28    29 ar  
    52    28    33 ar  
    53    29    30 ar  
    54    30    31 ar  
    55    31    32 ar  
    56    31    55 1   
    57    32    33 ar  
    58    33    34 1   
    59    34    56 1   
    60    34    57 1   
@<TRIPOS>SUBSTRUCTURE
     1 W5Y         1 TEMP              0 ****  ****    0 ROOT
