@<TRIPOS>MOLECULE
W5Z
   29    30     1     0     0
SMALL
No Charge or Current Charge


@<TRIPOS>ATOM
      1 N1          -0.8480    15.9260   -38.1580 na         1 W5Z      -0.183500
      2 C7           0.1530    16.2620   -35.8620 c3         1 W5Z       0.091000
      3 C8           0.0500    15.3770   -37.1290 c3         1 W5Z       0.042600
      4 N2          -2.6450    16.1950   -39.4460 nc         1 W5Z      -0.667000
      5 C9          -0.5800    16.9910   -39.0000 cd         1 W5Z      -0.238000
      6 C1          -2.8240    13.2770   -35.2250 ca         1 W5Z      -0.093000
      7 C5          -1.4090    11.4390   -34.4870 ca         1 W5Z      -0.133000
      8 C6          -2.1640    15.6950   -34.9290 c          1 W5Z       0.601700
      9 C4          -0.4730    12.3650   -34.0030 ca         1 W5Z       0.162000
     10 C3          -0.7010    13.7430   -34.1340 ca         1 W5Z      -0.127000
     11 C2          -1.8730    14.2180   -34.7710 ca         1 W5Z      -0.120600
     12 O           -3.2890    16.1380   -34.7600 o          1 W5Z      -0.577100
     13 C           -2.5900    11.8960   -35.0930 ca         1 W5Z      -0.088000
     14 N           -1.1400    16.5740   -35.2200 ns         1 W5Z      -0.499900
     15 C11         -2.1220    15.4690   -38.4650 cd         1 W5Z       0.396400
     16 C10         -1.7000    17.1280   -39.7720 cc         1 W5Z       0.235900
     17 H1           0.8300    15.7960   -35.1380 h1         1 W5Z       0.065200
     18 H2           0.6150    17.2150   -36.1520 h1         1 W5Z       0.065200
     19 H3          -0.2900    14.3700   -36.8600 h1         1 W5Z       0.069700
     20 H4           1.0520    15.2720   -37.5650 h1         1 W5Z       0.069700
     21 H5           0.3470    17.5530   -38.9920 h4         1 W5Z       0.154000
     22 H6          -3.7450    13.6170   -35.6950 ha         1 W5Z       0.131000
     23 H7          -1.2240    10.3730   -34.3790 ha         1 W5Z       0.137000
     24 H8           0.0210    14.4340   -33.7080 ha         1 W5Z       0.139000
     25 H9          -3.3260    11.1830   -35.4590 ha         1 W5Z       0.125000
     26 H10         -1.4200    17.5480   -35.2150 hn         1 W5Z       0.324500
     27 H11         -2.5820    14.6320   -37.9520 h5         1 W5Z       0.055100
     28 H12         -1.8900    17.8500   -40.5550 h4         1 W5Z       0.040100
     29 F            0.6500    11.9260   -33.3950 f          1 W5Z      -0.179000
@<TRIPOS>BOND
     1     1     3 1   
     2     1     5 1   
     3     1    15 1   
     4     2     3 1   
     5     2    14 1   
     6     2    17 1   
     7     2    18 1   
     8     3    19 1   
     9     3    20 1   
    10     4    15 2   
    11     4    16 1   
    12     5    16 2   
    13     5    21 1   
    14     6    11 ar  
    15     6    13 ar  
    16     6    22 1   
    17     7     9 ar  
    18     7    13 ar  
    19     7    23 1   
    20     8    11 1   
    21     8    12 2   
    22     8    14 1   
    23     9    10 ar  
    24     9    29 1   
    25    10    11 ar  
    26    10    24 1   
    27    13    25 1   
    28    14    26 1   
    29    15    27 1   
    30    16    28 1   
@<TRIPOS>SUBSTRUCTURE
     1 W5Z         1 TEMP              0 ****  ****    0 ROOT
