@<TRIPOS>MOLECULE
W5Z
   29    30     1     0     0
SMALL
abcg2


@<TRIPOS>ATOM
      1 N1          -0.9490    16.0590   -38.4010 na         1 W5Z      -0.183500
      2 C7           0.0570    15.8810   -36.1430 c3         1 W5Z       0.091000
      3 C8          -0.1800    15.2150   -37.5010 c3         1 W5Z       0.042600
      4 N2          -2.7050    16.9200   -39.4440 nc         1 W5Z      -0.667000
      5 C9          -0.5020    17.1860   -39.0530 cd         1 W5Z      -0.238000
      6 C1          -2.5740    13.0930   -35.2160 ca         1 W5Z      -0.093000
      7 C5          -1.2780    11.4250   -34.0460 ca         1 W5Z      -0.133000
      8 C6          -2.1340    15.5340   -34.9510 c          1 W5Z       0.601700
      9 C4          -0.5330    12.4500   -33.4910 ca         1 W5Z       0.162000
     10 C3          -0.7560    13.7820   -33.7810 ca         1 W5Z      -0.127000
     11 C2          -1.7940    14.1030   -34.6550 ca         1 W5Z      -0.120600
     12 O           -3.2550    15.9710   -34.6860 o          1 W5Z      -0.577100
     13 C           -2.3070    11.7620   -34.9210 ca         1 W5Z      -0.088000
     14 N           -1.1740    16.3140   -35.4940 ns         1 W5Z      -0.499900
     15 C11         -2.2770    15.9490   -38.6610 cd         1 W5Z       0.396400
     16 C10         -1.5960    17.7020   -39.6940 cc         1 W5Z       0.235900
     17 H1           0.6040    15.1870   -35.5090 h1         1 W5Z       0.065200
     18 H2           0.6760    16.7680   -36.2680 h1         1 W5Z       0.065200
     19 H3          -0.7320    14.2850   -37.3740 h1         1 W5Z       0.069700
     20 H4           0.7810    14.9810   -37.9590 h1         1 W5Z       0.069700
     21 H5           0.5260    17.5010   -39.0040 h4         1 W5Z       0.154000
     22 H6          -3.3810    13.3530   -35.8880 ha         1 W5Z       0.131000
     23 H7          -1.0580    10.3960   -33.7950 ha         1 W5Z       0.137000
     24 H8          -0.1430    14.5460   -33.3220 ha         1 W5Z       0.139000
     25 H9          -2.9030    10.9790   -35.3700 ha         1 W5Z       0.125000
     26 H10         -1.4760    17.2580   -35.6910 hn         1 W5Z       0.324500
     27 H11         -2.8700    15.1440   -38.2560 h5         1 W5Z       0.055100
     28 H12         -1.6480    18.5780   -40.3210 h4         1 W5Z       0.040100
     29 F            0.4620    12.1370   -32.6250 f          1 W5Z      -0.179000
@<TRIPOS>BOND
     1     1     3 1   
     2     1     5 1   
     3     1    15 1   
     4     2     3 1   
     5     2    14 1   
     6     2    17 1   
     7     2    18 1   
     8     3    19 1   
     9     3    20 1   
    10     4    15 2   
    11     4    16 1   
    12     5    16 2   
    13     5    21 1   
    14     6    11 ar  
    15     6    13 ar  
    16     6    22 1   
    17     7     9 ar  
    18     7    13 ar  
    19     7    23 1   
    20     8    11 1   
    21     8    12 2   
    22     8    14 1   
    23     9    10 ar  
    24     9    29 1   
    25    10    11 ar  
    26    10    24 1   
    27    13    25 1   
    28    14    26 1   
    29    15    27 1   
    30    16    28 1   
@<TRIPOS>SUBSTRUCTURE
     1 W5Z         1 TEMP              0 ****  ****    0 ROOT
