@<TRIPOS>MOLECULE
W61
   58    62     1     0     0
SMALL
abcg2


@<TRIPOS>ATOM
      1 C1           3.2520     0.2420    -0.1470 ca         1 W61       0.342000
      2 C2           3.7460    -0.9540    -0.6260 ca         1 W61      -0.213000
      3 C3           5.1310    -1.0970    -0.7970 ca         1 W61       0.287300
      4 N4           6.0210    -0.1860    -0.5360 nb         1 W61      -0.634000
      5 C5           5.5680     1.0190    -0.1150 ca         1 W61       0.278000
      6 C6           4.1920     1.3040     0.0610 ca         1 W61      -0.080000
      7 C7           3.8080     2.6290     0.3620 ca         1 W61      -0.088000
      8 C8           4.7510     3.6020     0.5610 ca         1 W61      -0.108000
      9 C9           6.1220     3.2980     0.4620 ca         1 W61      -0.097000
     10 C10          6.5210     2.0350     0.1190 ca         1 W61      -0.080000
     11 C11          5.6530    -2.4090    -1.3280 c3         1 W61       0.259700
     12 N20          1.9100     0.4530     0.0920 nh         1 W61      -0.794400
     13 C21          0.9550    -0.4540    -0.5170 c6         1 W61       0.192300
     14 C22         -0.4300     0.1670    -0.4950 c6         1 W61       0.157300
     15 N23         -0.8440     0.4890     0.8590 n3         1 W61      -0.708600
     16 C24          0.1240     1.3920     1.4590 c6         1 W61       0.157300
     17 C26         -2.1860     1.0450     0.8970 c5         1 W61       0.151500
     18 C27         -2.6900     1.2980     2.3390 c5         1 W61       0.145800
     19 N28         -4.0990     0.8980     2.3960 n7         1 W61      -0.831400
     20 C29         -4.5170     0.6190     1.0330 c5         1 W61       0.079500
     21 C30         -3.2540     0.1210     0.3140 c5         1 W61      -0.112400
     22 C32          1.5040     0.7720     1.4600 c6         1 W61       0.192300
     23 C33         -5.6230    -0.4200     1.0000 c          1 W61       0.609100
     24 N46         -6.4740    -0.3880    -0.0410 n          1 W61      -0.417800
     25 C47         -6.4160     0.5890    -1.1190 c5         1 W61       0.239000
     26 S48         -7.4160    -0.1130    -2.4540 ss         1 W61      -0.416000
     27 C49         -8.4910    -0.8890    -1.2180 c5         1 W61       0.043600
     28 C50         -7.5400    -1.3810    -0.1430 c5         1 W61       0.102000
     29 F52          5.3540    -2.5470    -2.6280 f          1 W61      -0.106000
     30 F53          6.9710    -2.5200    -1.2080 f          1 W61      -0.106000
     31 F54          5.1000    -3.4510    -0.6940 f          1 W61      -0.106000
     32 O57         -5.7060    -1.2730     1.8750 o          1 W61      -0.598100
     33 H2           3.0880    -1.7890    -0.8220 ha         1 W61       0.138000
     34 H7           2.7590     2.8890     0.4040 ha         1 W61       0.125000
     35 H8           4.4400     4.6150     0.7820 ha         1 W61       0.117000
     36 H9           6.8580     4.0720     0.6330 ha         1 W61       0.121000
     37 H10          7.5690     1.7910     0.0030 ha         1 W61       0.137000
     38 H21          1.2370    -0.6350    -1.5550 h1         1 W61       0.052950
     39 H21A         0.9290    -1.4230    -0.0010 h1         1 W61       0.052950
     40 H22         -0.4360     1.0590    -1.1440 h1         1 W61       0.043450
     41 H22A        -1.1210    -0.5560    -0.9300 h1         1 W61       0.043450
     42 H24          0.1640     2.3610     0.9320 h1         1 W61       0.043450
     43 H24A        -0.1530     1.6000     2.4930 h1         1 W61       0.043450
     44 H26         -2.2190     1.9960     0.3360 h1         1 W61       0.029700
     45 H27         -2.1100     0.7120     3.0550 h1         1 W61       0.056700
     46 H27A        -2.5710     2.3500     2.6080 h1         1 W61       0.056700
     47 HN28        -4.1780     0.0430     2.9320 hn         1 W61       0.435000
     48 H29         -4.8520     1.5500     0.5650 h1         1 W61       0.074700
     49 H30         -3.3290     0.1730    -0.7730 hc         1 W61       0.065200
     50 H30A        -3.0500    -0.9160     0.5990 hc         1 W61       0.065200
     51 H32          1.4960    -0.1430     2.0670 h1         1 W61       0.052950
     52 H32A         2.2090     1.4580     1.9240 h1         1 W61       0.052950
     53 H47         -6.8200     1.5540    -0.8060 h2         1 W61       0.071700
     54 H47A        -5.4050     0.7350    -1.4950 h2         1 W61       0.071700
     55 H49         -9.2010    -0.1620    -0.8250 h1         1 W61       0.083700
     56 H49A        -9.0430    -1.7070    -1.6770 h1         1 W61       0.083700
     57 H50         -7.1240    -2.3540    -0.4140 h1         1 W61       0.071200
     58 H50A        -8.0570    -1.4850     0.8100 h1         1 W61       0.071200
@<TRIPOS>BOND
     1     1     2 ar  
     2     1     6 ar  
     3     1    12 1   
     4     2     3 ar  
     5     2    33 1   
     6     3     4 ar  
     7     3    11 1   
     8     4     5 ar  
     9     5     6 ar  
    10     5    10 ar  
    11     6     7 ar  
    12     7     8 ar  
    13     7    34 1   
    14     8     9 ar  
    15     8    35 1   
    16     9    10 ar  
    17     9    36 1   
    18    10    37 1   
    19    11    29 1   
    20    11    30 1   
    21    11    31 1   
    22    12    13 1   
    23    12    22 1   
    24    13    14 1   
    25    13    38 1   
    26    13    39 1   
    27    14    15 1   
    28    14    40 1   
    29    14    41 1   
    30    15    16 1   
    31    15    17 1   
    32    16    22 1   
    33    16    42 1   
    34    16    43 1   
    35    17    18 1   
    36    17    21 1   
    37    17    44 1   
    38    18    19 1   
    39    18    45 1   
    40    18    46 1   
    41    19    20 1   
    42    19    47 1   
    43    20    21 1   
    44    20    23 1   
    45    20    48 1   
    46    21    49 1   
    47    21    50 1   
    48    22    51 1   
    49    22    52 1   
    50    23    24 1   
    51    23    32 2   
    52    24    25 1   
    53    24    28 1   
    54    25    26 1   
    55    25    53 1   
    56    25    54 1   
    57    26    27 1   
    58    27    28 1   
    59    27    55 1   
    60    27    56 1   
    61    28    57 1   
    62    28    58 1   
@<TRIPOS>SUBSTRUCTURE
     1 W61         1 TEMP              0 ****  ****    0 ROOT
