@<TRIPOS>MOLECULE
W61
   58    62     1     0     0
SMALL
No Charge or Current Charge


@<TRIPOS>ATOM
      1 C1           3.3870     0.2860    -0.0810 ca         1 W61       0.342000
      2 C2           3.9260    -0.9900    -0.2810 ca         1 W61      -0.213000
      3 C3           5.2940    -1.1360    -0.5460 ca         1 W61       0.287300
      4 N4           6.1230    -0.0640    -0.6140 nb         1 W61      -0.634000
      5 C5           5.6220     1.1770    -0.4240 ca         1 W61       0.278000
      6 C6           4.2500     1.4020    -0.1540 ca         1 W61      -0.080000
      7 C7           3.7740     2.7230     0.0230 ca         1 W61      -0.088000
      8 C8           4.6570     3.8120    -0.0550 ca         1 W61      -0.108000
      9 C9           6.0170     3.5930    -0.3150 ca         1 W61      -0.097000
     10 C10          6.4910     2.2830    -0.4990 ca         1 W61      -0.080000
     11 C11          5.8890    -2.5440    -0.7610 c3         1 W61       0.259700
     12 N20          2.0100     0.4220     0.2050 nh         1 W61      -0.794400
     13 C21          0.9910    -0.3100    -0.6060 c6         1 W61       0.192300
     14 C22         -0.4370     0.3050    -0.4570 c6         1 W61       0.157300
     15 N23         -0.8900     0.4190     0.9710 n3         1 W61      -0.708600
     16 C24          0.1420     1.1970     1.7370 c6         1 W61       0.157300
     17 C26         -2.2930     0.9250     1.1470 c5         1 W61       0.151500
     18 C27         -2.7210     0.7920     2.6510 c5         1 W61       0.145800
     19 N28         -4.1750     0.4370     2.6560 n7         1 W61      -0.831400
     20 C29         -4.5870     0.3600     1.2100 c5         1 W61       0.079500
     21 C30         -3.2790    -0.0730     0.4920 c5         1 W61      -0.112400
     22 C32          1.5800     0.5980     1.6240 c6         1 W61       0.192300
     23 C33         -5.7410    -0.6840     0.9020 c          1 W61       0.609100
     24 N46         -6.6150    -0.2910    -0.1420 n          1 W61      -0.417800
     25 C47         -6.2830     0.7530    -1.1490 c5         1 W61       0.239000
     26 S48         -7.2850     0.3300    -2.6440 ss         1 W61      -0.416000
     27 C49         -8.5970    -0.3130    -1.5260 c5         1 W61       0.043600
     28 C50         -7.8010    -1.1300    -0.4790 c5         1 W61       0.102000
     29 F52          5.2720    -3.1950    -1.7740 f          1 W61      -0.106000
     30 F53          7.2120    -2.5310    -1.0580 f          1 W61      -0.106000
     31 F54          5.7470    -3.3160     0.3420 f          1 W61      -0.106000
     32 O57         -5.9450    -1.7070     1.5510 o          1 W61      -0.598100
     33 H2           3.2920    -1.8680    -0.2180 ha         1 W61       0.138000
     34 H7           2.7220     2.9140     0.2170 ha         1 W61       0.125000
     35 H8           4.2850     4.8250     0.0830 ha         1 W61       0.117000
     36 H9           6.7030     4.4340    -0.3770 ha         1 W61       0.121000
     37 H10          7.5450     2.1190    -0.7030 ha         1 W61       0.137000
     38 H21          1.2690    -0.2940    -1.6700 h1         1 W61       0.052950
     39 H21A         0.9490    -1.3640    -0.2930 h1         1 W61       0.052950
     40 H22         -0.4390     1.2980    -0.9290 h1         1 W61       0.043450
     41 H22A        -1.1260    -0.3230    -1.0380 h1         1 W61       0.043450
     42 H24          0.1700     2.2350     1.3730 h1         1 W61       0.043450
     43 H24A        -0.1150     1.2440     2.8040 h1         1 W61       0.043450
     44 H26         -2.4310     1.9480     0.7690 h1         1 W61       0.029700
     45 H27         -2.1500    -0.0000     3.1550 h1         1 W61       0.056700
     46 H27A        -2.5360     1.7270     3.1960 h1         1 W61       0.056700
     47 HN28        -4.2690    -0.5060     3.0610 hn         1 W61       0.435000
     48 H29         -4.9000     1.3590     0.8790 h1         1 W61       0.074700
     49 H30         -3.3330     0.0390    -0.5950 hc         1 W61       0.065200
     50 H30A        -3.0200    -1.1170     0.7100 hc         1 W61       0.065200
     51 H32          1.5990    -0.3730     2.1400 h1         1 W61       0.052950
     52 H32A         2.2780     1.2620     2.1550 h1         1 W61       0.052950
     53 H47         -6.5950     1.7200    -0.7340 h2         1 W61       0.071700
     54 H47A        -5.2150     0.7110    -1.3860 h2         1 W61       0.071700
     55 H49         -9.1290     0.5250    -1.0570 h1         1 W61       0.083700
     56 H49A        -9.3230    -0.9280    -2.0740 h1         1 W61       0.083700
     57 H50         -7.4790    -2.0930    -0.8990 h1         1 W61       0.071200
     58 H50A        -8.4140    -1.3420     0.4080 h1         1 W61       0.071200
@<TRIPOS>BOND
     1     1     2 ar  
     2     1     6 ar  
     3     1    12 1   
     4     2     3 ar  
     5     2    33 1   
     6     3     4 ar  
     7     3    11 1   
     8     4     5 ar  
     9     5     6 ar  
    10     5    10 ar  
    11     6     7 ar  
    12     7     8 ar  
    13     7    34 1   
    14     8     9 ar  
    15     8    35 1   
    16     9    10 ar  
    17     9    36 1   
    18    10    37 1   
    19    11    29 1   
    20    11    30 1   
    21    11    31 1   
    22    12    13 1   
    23    12    22 1   
    24    13    14 1   
    25    13    38 1   
    26    13    39 1   
    27    14    15 1   
    28    14    40 1   
    29    14    41 1   
    30    15    16 1   
    31    15    17 1   
    32    16    22 1   
    33    16    42 1   
    34    16    43 1   
    35    17    18 1   
    36    17    21 1   
    37    17    44 1   
    38    18    19 1   
    39    18    45 1   
    40    18    46 1   
    41    19    20 1   
    42    19    47 1   
    43    20    21 1   
    44    20    23 1   
    45    20    48 1   
    46    21    49 1   
    47    21    50 1   
    48    22    51 1   
    49    22    52 1   
    50    23    24 1   
    51    23    32 2   
    52    24    25 1   
    53    24    28 1   
    54    25    26 1   
    55    25    53 1   
    56    25    54 1   
    57    26    27 1   
    58    27    28 1   
    59    27    55 1   
    60    27    56 1   
    61    28    57 1   
    62    28    58 1   
@<TRIPOS>SUBSTRUCTURE
     1 W61         1 TEMP              0 ****  ****    0 ROOT
