@<TRIPOS>MOLECULE
W62
   32    36     1     0     0
SMALL
abcg2


@<TRIPOS>ATOM
      1 C4         129.5610   143.8530   139.8930 ca         1 W62      -0.016000
      2 C5         130.6560   143.9620   140.8050 ca         1 W62      -0.035000
      3 C6         130.5550   143.3670   142.0890 ca         1 W62      -0.098000
      4 C7         131.8220   144.6570   140.4240 ca         1 W62      -0.084000
      5 C8         131.9430   145.2450   139.1830 ca         1 W62      -0.031000
      6 C10        133.2460   146.5290   137.5770 ca         1 W62      -0.094000
      7 C13        131.2330   146.9530   134.4370 ca         1 W62      -0.106000
      8 C15        129.9240   145.6760   136.0260 ca         1 W62      -0.034000
      9 C17        128.6210   144.3980   137.6280 ca         1 W62      -0.096000
     10 C20        130.9860   145.7590   136.9660 ca         1 W62      -0.015000
     11 C1         129.4250   142.6910   142.4670 ca         1 W62      -0.107000
     12 C11        132.1790   146.4540   136.6150 ca         1 W62      -0.034000
     13 C12        132.2810   147.0410   135.3540 ca         1 W62      -0.094000
     14 C14        130.0690   146.2810   134.7650 ca         1 W62      -0.094000
     15 C16        128.7410   144.9770   136.4020 ca         1 W62      -0.097000
     16 C18        129.6710   144.4610   138.5950 ca         1 W62      -0.017000
     17 C19        130.8550   145.1500   138.2480 ca         1 W62      -0.013000
     18 C2         128.3430   142.5780   141.5690 ca         1 W62      -0.106000
     19 C3         128.4110   143.1440   140.3190 ca         1 W62      -0.100000
     20 C9         133.1330   145.9540   138.7950 ca         1 W62      -0.096000
     21 H1         131.3960   143.4590   142.7660 ha         1 W62       0.113000
     22 H2         132.6420   144.7270   141.1300 ha         1 W62       0.114000
     23 H3         134.1490   147.0600   137.2990 ha         1 W62       0.114000
     24 H4         131.3340   147.4150   133.4630 ha         1 W62       0.115000
     25 H5         127.7040   143.8810   137.8690 ha         1 W62       0.113000
     26 H6         129.3590   142.2420   143.4500 ha         1 W62       0.114000
     27 H7         133.1900   147.5690   135.0910 ha         1 W62       0.114000
     28 H8         129.2560   146.2130   134.0530 ha         1 W62       0.114000
     29 H9         127.9280   144.9120   135.6890 ha         1 W62       0.114000
     30 H10        127.4510   142.0430   141.8680 ha         1 W62       0.113000
     31 H11        127.5650   143.0390   139.6560 ha         1 W62       0.112000
     32 H12        133.9430   146.0160   139.5120 ha         1 W62       0.114000
@<TRIPOS>BOND
     1     1     2 ar  
     2     1    16 ar  
     3     1    19 ar  
     4     2     3 ar  
     5     2     4 ar  
     6     3    11 ar  
     7     3    21 1   
     8     4     5 ar  
     9     4    22 1   
    10     5    17 ar  
    11     5    20 ar  
    12     6    12 ar  
    13     6    20 ar  
    14     6    23 1   
    15     7    13 ar  
    16     7    14 ar  
    17     7    24 1   
    18     8    10 ar  
    19     8    14 ar  
    20     8    15 ar  
    21     9    15 ar  
    22     9    16 ar  
    23     9    25 1   
    24    10    12 ar  
    25    10    17 ar  
    26    11    18 ar  
    27    11    26 1   
    28    12    13 ar  
    29    13    27 1   
    30    14    28 1   
    31    15    29 1   
    32    16    17 ar  
    33    18    19 ar  
    34    18    30 1   
    35    19    31 1   
    36    20    32 1   
@<TRIPOS>SUBSTRUCTURE
     1 W62         1 TEMP              0 ****  ****    0 ROOT
