@<TRIPOS>MOLECULE
W62
   32    36     1     0     0
SMALL
No Charge or Current Charge


@<TRIPOS>ATOM
      1 C4         129.5590   143.8560   139.8870 ca         1 W62      -0.016000
      2 C5         130.6470   143.9640   140.7920 ca         1 W62      -0.035000
      3 C6         130.5790   143.3840   142.0740 ca         1 W62      -0.098000
      4 C7         131.8140   144.6530   140.4270 ca         1 W62      -0.084000
      5 C8         131.9220   145.2450   139.1620 ca         1 W62      -0.031000
      6 C10        133.2270   146.5290   137.5530 ca         1 W62      -0.094000
      7 C13        131.2460   146.9620   134.4340 ca         1 W62      -0.106000
      8 C15        129.9350   145.6770   136.0360 ca         1 W62      -0.034000
      9 C17        128.6210   144.3930   137.6350 ca         1 W62      -0.096000
     10 C20        130.9870   145.7560   136.9710 ca         1 W62      -0.015000
     11 C1         129.4310   142.6880   142.4770 ca         1 W62      -0.107000
     12 C11        132.1730   146.4450   136.6280 ca         1 W62      -0.034000
     13 C12        132.2980   147.0450   135.3600 ca         1 W62      -0.094000
     14 C14        130.0660   146.2790   134.7700 ca         1 W62      -0.094000
     15 C16        128.7580   144.9950   136.3740 ca         1 W62      -0.097000
     16 C18        129.6640   144.4570   138.5950 ca         1 W62      -0.017000
     17 C19        130.8540   145.1500   138.2440 ca         1 W62      -0.013000
     18 C2         128.3480   142.5700   141.5980 ca         1 W62      -0.106000
     19 C3         128.4070   143.1460   140.3170 ca         1 W62      -0.100000
     20 C9         133.1010   145.9310   138.8150 ca         1 W62      -0.096000
     21 H1         131.4170   143.4720   142.7610 ha         1 W62       0.113000
     22 H2         132.6400   144.7290   141.1300 ha         1 W62       0.114000
     23 H3         134.1430   147.0570   137.2960 ha         1 W62       0.114000
     24 H4         131.3460   147.4260   133.4550 ha         1 W62       0.115000
     25 H5         127.6870   143.8820   137.8320 ha         1 W62       0.113000
     26 H6         129.3830   142.2410   143.4670 ha         1 W62       0.114000
     27 H7         133.2100   147.5750   135.0920 ha         1 W62       0.114000
     28 H8         129.2550   146.2190   134.0470 ha         1 W62       0.114000
     29 H9         127.9410   144.9290   135.6590 ha         1 W62       0.114000
     30 H10        127.4560   142.0300   141.9080 ha         1 W62       0.113000
     31 H11        127.5370   143.0200   139.6840 ha         1 W62       0.112000
     32 H12        133.9230   146.0020   139.5250 ha         1 W62       0.114000
@<TRIPOS>BOND
     1     1     2 ar  
     2     1    16 ar  
     3     1    19 ar  
     4     2     3 ar  
     5     2     4 ar  
     6     3    11 ar  
     7     3    21 1   
     8     4     5 ar  
     9     4    22 1   
    10     5    17 ar  
    11     5    20 ar  
    12     6    12 ar  
    13     6    20 ar  
    14     6    23 1   
    15     7    13 ar  
    16     7    14 ar  
    17     7    24 1   
    18     8    10 ar  
    19     8    14 ar  
    20     8    15 ar  
    21     9    15 ar  
    22     9    16 ar  
    23     9    25 1   
    24    10    12 ar  
    25    10    17 ar  
    26    11    18 ar  
    27    11    26 1   
    28    12    13 ar  
    29    13    27 1   
    30    14    28 1   
    31    15    29 1   
    32    16    17 ar  
    33    18    19 ar  
    34    18    30 1   
    35    19    31 1   
    36    20    32 1   
@<TRIPOS>SUBSTRUCTURE
     1 W62         1 TEMP              0 ****  ****    0 ROOT
