@<TRIPOS>MOLECULE
W63
   30    30     1     0     0
SMALL
abcg2


@<TRIPOS>ATOM
      1 C7           0.0680    12.3350   -34.8640 ca         1 W63       0.151000
      2 C8          -0.8760    13.2820   -34.4970 ca         1 W63      -0.130000
      3 C9          -5.0800    16.3490   -36.3900 c3         1 W63       0.059600
      4 O1          -7.1770    16.3830   -37.5440 oh         1 W63      -0.658000
      5 C1          -4.5140    15.8700   -33.6910 c3         1 W63      -0.017700
      6 C5          -1.5590    11.0820   -36.0690 ca         1 W63      -0.075000
      7 C6          -0.2410    11.2320   -35.6450 ca         1 W63      -0.130000
      8 C4          -2.5280    12.0080   -35.7200 ca         1 W63      -0.166000
      9 C3          -2.1930    13.1150   -34.9320 ca         1 W63      -0.010000
     10 C2          -3.1660    15.1890   -33.9480 c          1 W63       0.596100
     11 CL           1.7180    12.5490   -34.3100 cl         1 W63      -0.209000
     12 N           -3.2240    14.0070   -34.6070 ns         1 W63      -0.146000
     13 O           -2.1400    15.7040   -33.5190 o          1 W63      -0.578100
     14 C           -5.0360    15.4580   -32.3090 c3         1 W63      -0.073100
     15 S           -5.8120    15.5310   -34.9270 ss         1 W63      -0.416000
     16 C10         -5.8170    15.9560   -37.6500 c3         1 W63       0.172600
     17 H1          -0.6040    14.1290   -33.8910 ha         1 W63       0.165000
     18 H2          -4.0390    16.0360   -36.4820 h1         1 W63       0.073700
     19 H3          -5.1130    17.4290   -36.2430 h1         1 W63       0.073700
     20 H4          -7.6520    16.0790   -38.3270 ho         1 W63       0.446000
     21 H5          -4.3120    16.9410   -33.7000 h1         1 W63       0.098700
     22 H6          -1.8290    10.2300   -36.6800 ha         1 W63       0.119000
     23 H7           0.5200    10.5140   -35.9150 ha         1 W63       0.133000
     24 H8          -3.5500    11.8800   -36.0540 ha         1 W63       0.116000
     25 H9          -4.1490    13.7610   -34.9450 hn         1 W63       0.172000
     26 H10         -4.2670    15.6370   -31.5570 hc         1 W63       0.055700
     27 H11         -5.9190    16.0420   -32.0510 hc         1 W63       0.055700
     28 H12         -5.2980    14.3990   -32.2920 hc         1 W63       0.055700
     29 H13         -5.7650    14.8710   -37.7920 h1         1 W63       0.032200
     30 H14         -5.3270    16.4380   -38.5030 h1         1 W63       0.032200
@<TRIPOS>BOND
     1     1     2 ar  
     2     1     7 ar  
     3     1    11 1   
     4     2     9 ar  
     5     2    17 1   
     6     3    15 1   
     7     3    16 1   
     8     3    18 1   
     9     3    19 1   
    10     4    16 1   
    11     4    20 1   
    12     5    10 1   
    13     5    14 1   
    14     5    15 1   
    15     5    21 1   
    16     6     7 ar  
    17     6     8 ar  
    18     6    22 1   
    19     7    23 1   
    20     8     9 ar  
    21     8    24 1   
    22     9    12 1   
    23    10    12 1   
    24    10    13 2   
    25    12    25 1   
    26    14    26 1   
    27    14    27 1   
    28    14    28 1   
    29    16    29 1   
    30    16    30 1   
@<TRIPOS>SUBSTRUCTURE
     1 W63         1 TEMP              0 ****  ****    0 ROOT
