@<TRIPOS>MOLECULE
W63
   30    30     1     0     0
SMALL
No Charge or Current Charge


@<TRIPOS>ATOM
      1 C7           0.2000    12.3290   -34.9240 ca         1 W63       0.151000
      2 C8          -0.7700    13.2600   -34.5170 ca         1 W63      -0.130000
      3 C9          -5.0720    16.2330   -36.4480 c3         1 W63       0.059600
      4 O1          -7.1920    16.7030   -37.5990 oh         1 W63      -0.658000
      5 C1          -4.5580    15.8320   -33.6560 c3         1 W63      -0.017700
      6 C5          -1.5120    11.0150   -36.0370 ca         1 W63      -0.075000
      7 C6          -0.1670    11.2080   -35.6840 ca         1 W63      -0.130000
      8 C4          -2.4830    11.9460   -35.6300 ca         1 W63      -0.166000
      9 C3          -2.1260    13.0760   -34.8710 ca         1 W63      -0.010000
     10 C2          -3.1570    15.1980   -33.8460 c          1 W63       0.596100
     11 Cl           1.8840    12.5680   -34.4770 cl         1 W63      -0.209000
     12 N           -3.1650    13.9710   -34.4960 ns         1 W63      -0.146000
     13 O           -2.1400    15.7750   -33.4810 o          1 W63      -0.578100
     14 C           -5.1440    15.5080   -32.2650 c3         1 W63      -0.073100
     15 S           -5.7900    15.3500   -34.9750 ss         1 W63      -0.416000
     16 C10         -5.9270    16.0330   -37.7210 c3         1 W63       0.172600
     17 H1          -0.4460    14.1090   -33.9250 ha         1 W63       0.165000
     18 H2          -4.0620    15.8470   -36.6370 h1         1 W63       0.073700
     19 H3          -4.9900    17.3050   -36.2280 h1         1 W63       0.073700
     20 H4          -7.7050    16.4960   -38.4120 ho         1 W63       0.446000
     21 H5          -4.4120    16.9180   -33.7170 h1         1 W63       0.098700
     22 H6          -1.8010    10.1460   -36.6250 ha         1 W63       0.119000
     23 H7           0.5880    10.4910   -35.9950 ha         1 W63       0.133000
     24 H8          -3.5230    11.7850   -35.9110 ha         1 W63       0.116000
     25 H9          -4.0910    13.6560   -34.7580 hn         1 W63       0.172000
     26 H10         -4.4630    15.8390   -31.4710 hc         1 W63       0.055700
     27 H11         -6.1040    16.0190   -32.1240 hc         1 W63       0.055700
     28 H12         -5.3080    14.4300   -32.1510 hc         1 W63       0.055700
     29 H13         -6.0720    14.9580   -37.8920 h1         1 W63       0.032200
     30 H14         -5.3730    16.4340   -38.5810 h1         1 W63       0.032200
@<TRIPOS>BOND
     1     1     2 ar  
     2     1     7 ar  
     3     1    11 1   
     4     2     9 ar  
     5     2    17 1   
     6     3    15 1   
     7     3    16 1   
     8     3    18 1   
     9     3    19 1   
    10     4    16 1   
    11     4    20 1   
    12     5    10 1   
    13     5    14 1   
    14     5    15 1   
    15     5    21 1   
    16     6     7 ar  
    17     6     8 ar  
    18     6    22 1   
    19     7    23 1   
    20     8     9 ar  
    21     8    24 1   
    22     9    12 1   
    23    10    12 1   
    24    10    13 2   
    25    12    25 1   
    26    14    26 1   
    27    14    27 1   
    28    14    28 1   
    29    16    29 1   
    30    16    30 1   
@<TRIPOS>SUBSTRUCTURE
     1 W63         1 TEMP              0 ****  ****    0 ROOT
