@<TRIPOS>MOLECULE
W64
   48    50     1     0     0
SMALL
No Charge or Current Charge


@<TRIPOS>ATOM
      1 N01         -3.5520    -1.5170    -0.4500 nb         1 W64      -0.754000
      2 C02         -4.7750    -2.0080    -0.3240 ca         1 W64       0.602900
      3 N02         -4.7540    -3.3400    -0.2600 nv         1 W64      -1.058900
      4 C03         -5.9450    -1.2490    -0.2500 ca         1 W64      -0.233000
      5 C04         -5.8380     0.1480    -0.3200 ca         1 W64       0.001700
      6 C05         -4.5500     0.6890    -0.4560 ca         1 W64      -0.216000
      7 C06         -3.4380    -0.1720    -0.5180 ca         1 W64       0.397300
      8 C07         -7.0660     1.0400    -0.2440 c3         1 W64      -0.053800
      9 C08         -2.0300     0.3870    -0.6550 c3         1 W64      -0.125700
     10 C09         -1.4510     0.8650     0.6950 c3         1 W64      -0.024100
     11 N11          1.3720     3.4130     0.4190 nb         1 W64      -0.644000
     12 C12          0.1530     2.8430     0.5550 ca         1 W64       0.298900
     13 C13         -0.0510     1.4470     0.5470 ca         1 W64      -0.100300
     14 C14          1.0640     0.5990     0.3930 ca         1 W64      -0.123000
     15 C15          2.3480     1.1610     0.2540 ca         1 W64       0.253000
     16 C16          2.4370     2.5830     0.2710 ca         1 W64       0.271900
     17 C22          4.7580     0.8400    -0.4990 c6         1 W64       0.199300
     18 N21          3.4850     0.3130     0.0940 nh         1 W64      -0.786400
     19 C26          3.7210    -0.8160     1.0530 c6         1 W64       0.199300
     20 C23          5.6810    -0.2950    -1.0510 c6         1 W64       0.156800
     21 C25          4.6660    -1.9170     0.4690 c6         1 W64       0.156800
     22 N24          5.9560    -1.3620    -0.0420 n3         1 W64      -0.713600
     23 C27          6.8650    -2.4100    -0.5530 c3         1 W64       0.152100
     24 H071        -7.2670     1.3390     0.7910 hc         1 W64       0.046700
     25 H072        -6.9330     1.9520    -0.8370 hc         1 W64       0.046700
     26 H073        -7.9570     0.5260    -0.6240 hc         1 W64       0.046700
     27 H05         -4.4060     1.7650    -0.5100 ha         1 W64       0.122000
     28 H081        -1.3610    -0.3650    -1.0890 hc         1 W64       0.058700
     29 H082        -2.0380     1.2290    -1.3570 hc         1 W64       0.058700
     30 H03         -6.9110    -1.7330    -0.1430 ha         1 W64       0.118000
     31 H021        -3.8400    -3.7380    -0.0860 hn         1 W64       0.470000
     32 H022        -5.5420    -3.8020     0.1800 hn         1 W64       0.470000
     33 H091        -2.1280     1.6090     1.1340 hc         1 W64       0.055200
     34 H092        -1.4310     0.0200     1.3950 hc         1 W64       0.055200
     35 H16          3.4010     3.0810     0.1700 h4         1 W64       0.017100
     36 H14          0.9290    -0.4780     0.3670 ha         1 W64       0.121000
     37 H221         4.5350     1.5310    -1.3250 h1         1 W64       0.045950
     38 H222         5.3140     1.4060     0.2620 h1         1 W64       0.045950
     39 H261         4.1730    -0.4230     1.9760 h1         1 W64       0.045950
     40 H262         2.7750    -1.2960     1.3390 h1         1 W64       0.045950
     41 H231         5.1990    -0.7320    -1.9380 h1         1 W64       0.040700
     42 H232         6.6240     0.1590    -1.3920 h1         1 W64       0.040700
     43 H271         7.8190    -1.9720    -0.8760 h1         1 W64       0.032033
     44 H272         7.0810    -3.1510     0.2290 h1         1 W64       0.032033
     45 H273         6.4190    -2.9340    -1.4100 h1         1 W64       0.032033
     46 H251         4.8570    -2.6640     1.2530 h1         1 W64       0.040700
     47 H252         4.1320    -2.4350    -0.3420 h1         1 W64       0.040700
     48 H12         -0.6870     3.5280     0.6700 h4         1 W64       0.017100
@<TRIPOS>BOND
     1     1     2 ar  
     2     1     7 ar  
     3     2     3 1   
     4     2     4 ar  
     5     3    31 1   
     6     3    32 1   
     7     4     5 ar  
     8     4    30 1   
     9     5     6 ar  
    10     5     8 1   
    11     6     7 ar  
    12     6    27 1   
    13     7     9 1   
    14     8    24 1   
    15     8    25 1   
    16     8    26 1   
    17     9    10 1   
    18     9    28 1   
    19     9    29 1   
    20    10    13 1   
    21    10    33 1   
    22    10    34 1   
    23    11    12 ar  
    24    11    16 ar  
    25    12    13 ar  
    26    12    48 1   
    27    13    14 ar  
    28    14    15 ar  
    29    14    36 1   
    30    15    16 ar  
    31    15    18 1   
    32    16    35 1   
    33    17    18 1   
    34    17    20 1   
    35    17    37 1   
    36    17    38 1   
    37    18    19 1   
    38    19    21 1   
    39    19    39 1   
    40    19    40 1   
    41    20    22 1   
    42    20    41 1   
    43    20    42 1   
    44    21    22 1   
    45    21    46 1   
    46    21    47 1   
    47    22    23 1   
    48    23    43 1   
    49    23    44 1   
    50    23    45 1   
@<TRIPOS>SUBSTRUCTURE
     1 W64         1 TEMP              0 ****  ****    0 ROOT
