@<TRIPOS>MOLECULE
W64
   48    50     1     0     0
SMALL
abcg2


@<TRIPOS>ATOM
      1 N01         -3.5350    -1.3230    -0.2510 nb         1 W64      -0.754000
      2 C02         -4.7230    -1.8920    -0.0760 ca         1 W64       0.602900
      3 N02         -4.7440    -3.2430     0.1160 nv         1 W64      -1.058900
      4 C03         -5.9230    -1.1590    -0.1310 ca         1 W64      -0.233000
      5 C04         -5.8700     0.1970    -0.3810 ca         1 W64       0.001700
      6 C05         -4.6120     0.7820    -0.5710 ca         1 W64      -0.216000
      7 C06         -3.4830    -0.0120    -0.4950 ca         1 W64       0.397300
      8 C07         -7.1140     1.0280    -0.4430 c3         1 W64      -0.053800
      9 C08         -2.1110     0.5780    -0.6480 c3         1 W64      -0.125700
     10 C09         -1.3830     0.6780     0.7000 c3         1 W64      -0.024100
     11 N11          1.3850     3.1790     0.3410 nb         1 W64      -0.644000
     12 C12          0.1970     2.6310     0.5250 ca         1 W64       0.298900
     13 C13         -0.0050     1.2520     0.5450 ca         1 W64      -0.100300
     14 C14          1.1000     0.4390     0.3620 ca         1 W64      -0.123000
     15 C15          2.3730     0.9930     0.1720 ca         1 W64       0.253000
     16 C16          2.4410     2.3930     0.1750 ca         1 W64       0.271900
     17 C22          4.7490     0.8280    -0.3330 c6         1 W64       0.199300
     18 N21          3.4820     0.1860    -0.0400 nh         1 W64      -0.786400
     19 C26          3.6440    -0.9790     0.8200 c6         1 W64       0.199300
     20 C23          5.7380    -0.1760    -0.8950 c6         1 W64       0.156800
     21 C25          4.6510    -1.9480     0.2340 c6         1 W64       0.156800
     22 N24          5.9210    -1.2930     0.0060 n3         1 W64      -0.713600
     23 C27          6.9190    -2.2170    -0.4820 c3         1 W64       0.152100
     24 H071        -7.1320     1.7560     0.3690 hc         1 W64       0.046700
     25 H072        -7.1580     1.5910    -1.3770 hc         1 W64       0.046700
     26 H073        -8.0130     0.4190    -0.3690 hc         1 W64       0.046700
     27 H05         -4.5200     1.8430    -0.7690 ha         1 W64       0.122000
     28 H081        -1.5220    -0.0440    -1.3270 hc         1 W64       0.058700
     29 H082        -2.1800     1.5700    -1.0990 hc         1 W64       0.058700
     30 H03         -6.8710    -1.6590     0.0250 ha         1 W64       0.118000
     31 H021        -3.8800    -3.6680     0.4090 hn         1 W64       0.470000
     32 H022        -5.5670    -3.6460     0.5290 hn         1 W64       0.470000
     33 H091        -1.9700     1.3040     1.3770 hc         1 W64       0.055200
     34 H092        -1.3260    -0.3140     1.1520 hc         1 W64       0.055200
     35 H16          3.3860     2.9060     0.0430 h4         1 W64       0.017100
     36 H14          0.9620    -0.6350     0.3520 ha         1 W64       0.121000
     37 H221         4.6000     1.6060    -1.0820 h1         1 W64       0.045950
     38 H222         5.1760     1.3080     0.5600 h1         1 W64       0.045950
     39 H261         3.9730    -0.6720     1.8240 h1         1 W64       0.045950
     40 H262         2.6970    -1.5020     0.9340 h1         1 W64       0.045950
     41 H231         5.3880    -0.5080    -1.8880 h1         1 W64       0.040700
     42 H232         6.6960     0.3280    -1.0440 h1         1 W64       0.040700
     43 H271         7.8750    -1.7050    -0.6000 h1         1 W64       0.032033
     44 H272         7.0580    -3.0290     0.2340 h1         1 W64       0.032033
     45 H273         6.6570    -2.6660    -1.4520 h1         1 W64       0.032033
     46 H251         4.7890    -2.7710     0.9390 h1         1 W64       0.040700
     47 H252         4.2410    -2.3800    -0.6960 h1         1 W64       0.040700
     48 H12         -0.6410     3.3060     0.6710 h4         1 W64       0.017100
@<TRIPOS>BOND
     1     1     2 ar  
     2     1     7 ar  
     3     2     3 1   
     4     2     4 ar  
     5     3    31 1   
     6     3    32 1   
     7     4     5 ar  
     8     4    30 1   
     9     5     6 ar  
    10     5     8 1   
    11     6     7 ar  
    12     6    27 1   
    13     7     9 1   
    14     8    24 1   
    15     8    25 1   
    16     8    26 1   
    17     9    10 1   
    18     9    28 1   
    19     9    29 1   
    20    10    13 1   
    21    10    33 1   
    22    10    34 1   
    23    11    12 ar  
    24    11    16 ar  
    25    12    13 ar  
    26    12    48 1   
    27    13    14 ar  
    28    14    15 ar  
    29    14    36 1   
    30    15    16 ar  
    31    15    18 1   
    32    16    35 1   
    33    17    18 1   
    34    17    20 1   
    35    17    37 1   
    36    17    38 1   
    37    18    19 1   
    38    19    21 1   
    39    19    39 1   
    40    19    40 1   
    41    20    22 1   
    42    20    41 1   
    43    20    42 1   
    44    21    22 1   
    45    21    46 1   
    46    21    47 1   
    47    22    23 1   
    48    23    43 1   
    49    23    44 1   
    50    23    45 1   
@<TRIPOS>SUBSTRUCTURE
     1 W64         1 TEMP              0 ****  ****    0 ROOT
