@<TRIPOS>MOLECULE
W65
   17    17     1     0     0
SMALL
abcg2


@<TRIPOS>ATOM
      1 O1          39.0850   -35.6910     8.1020 o          1 W65      -0.472100
      2 C1          39.4440   -34.6040     7.7010 c          1 W65       0.535700
      3 C2          40.8030   -34.0630     7.9020 ca         1 W65      -0.179600
      4 C3          41.7160   -34.8240     8.6430 ca         1 W65      -0.055500
      5 C4          43.0060   -34.3640     8.8460 ca         1 W65      -0.123000
      6 C5          43.3990   -33.1380     8.3110 ca         1 W65      -0.074000
      7 C6          42.4990   -32.3750     7.5740 ca         1 W65      -0.123000
      8 C7          41.2050   -32.8320     7.3690 ca         1 W65      -0.055500
      9 C8          38.4270   -33.7290     6.9330 c3         1 W65       0.074300
     10 F1          38.1250   -32.6310     7.7060 f          1 W65      -0.107500
     11 F2          37.2740   -34.4210     6.7500 f          1 W65      -0.107500
     12 H1          41.3980   -35.7730     9.0520 ha         1 W65       0.126000
     13 H2          43.7070   -34.9560     9.4190 ha         1 W65       0.121500
     14 H3          44.4080   -32.7790     8.4690 ha         1 W65       0.118000
     15 H4          42.8060   -31.4240     7.1570 ha         1 W65       0.121500
     16 H5          40.5210   -32.2240     6.7930 ha         1 W65       0.126000
     17 H6          38.7810   -33.3840     5.9610 h2         1 W65       0.071700
@<TRIPOS>BOND
     1     1     2 2   
     2     2     3 1   
     3     2     9 1   
     4     3     4 ar  
     5     3     8 ar  
     6     4     5 ar  
     7     4    12 1   
     8     5     6 ar  
     9     5    13 1   
    10     6     7 ar  
    11     6    14 1   
    12     7     8 ar  
    13     7    15 1   
    14     8    16 1   
    15     9    10 1   
    16     9    11 1   
    17     9    17 1   
@<TRIPOS>SUBSTRUCTURE
     1 W65         1 TEMP              0 ****  ****    0 ROOT
