@<TRIPOS>MOLECULE
W65
   17    17     1     0     0
SMALL
No Charge or Current Charge


@<TRIPOS>ATOM
      1 O1          38.9870   -35.5530     8.3880 o          1 W65      -0.472100
      2 C1          39.3560   -34.5420     7.7980 c          1 W65       0.535700
      3 C2          40.7820   -34.0440     7.9540 ca         1 W65      -0.179600
      4 C3          41.7330   -34.8410     8.6340 ca         1 W65      -0.055500
      5 C4          43.0580   -34.3990     8.7900 ca         1 W65      -0.123000
      6 C5          43.4540   -33.1560     8.2730 ca         1 W65      -0.074000
      7 C6          42.5200   -32.3530     7.6000 ca         1 W65      -0.123000
      8 C7          41.1930   -32.7890     7.4410 ca         1 W65      -0.055500
      9 C8          38.3810   -33.7540     6.8920 c3         1 W65       0.074300
     10 F1          37.8640   -32.6880     7.5490 f          1 W65      -0.107500
     11 F2          37.3350   -34.5190     6.4920 f          1 W65      -0.107500
     12 H1          41.4510   -35.8090     9.0430 ha         1 W65       0.126000
     13 H2          43.7800   -35.0240     9.3130 ha         1 W65       0.121500
     14 H3          44.4800   -32.8160     8.3950 ha         1 W65       0.118000
     15 H4          42.8240   -31.3870     7.2020 ha         1 W65       0.121500
     16 H5          40.4970   -32.1350     6.9210 ha         1 W65       0.126000
     17 H6          38.9110   -33.4030     6.0020 h2         1 W65       0.071700
@<TRIPOS>BOND
     1     1     2 2   
     2     2     3 1   
     3     2     9 1   
     4     3     4 ar  
     5     3     8 ar  
     6     4     5 ar  
     7     4    12 1   
     8     5     6 ar  
     9     5    13 1   
    10     6     7 ar  
    11     6    14 1   
    12     7     8 ar  
    13     7    15 1   
    14     8    16 1   
    15     9    10 1   
    16     9    11 1   
    17     9    17 1   
@<TRIPOS>SUBSTRUCTURE
     1 W65         1 TEMP              0 ****  ****    0 ROOT
