@<TRIPOS>MOLECULE
W66
   45    46     1     0     0
SMALL
No Charge or Current Charge


@<TRIPOS>ATOM
      1 C07          4.7300     3.2560    -1.1510 c3         1 W66      -0.053800
      2 C06          2.8590     0.2700     0.3630 ca         1 W66       0.396300
      3 C05          3.1070     1.4680    -0.3350 ca         1 W66      -0.214000
      4 C04          4.4180     1.9650    -0.4120 ca         1 W66       0.001700
      5 C03          5.4250     1.2260     0.2250 ca         1 W66      -0.233000
      6 C02          5.0680     0.0490     0.8860 ca         1 W66       0.598900
      7 N02          5.9390    -0.7290     1.5300 nv         1 W66      -1.053900
      8 N01          3.8380    -0.4360     0.9710 nb         1 W66      -0.753000
      9 C09          1.0550    -1.1020    -0.8010 c3         1 W66      -0.023100
     10 C16         -2.8880    -2.7340    -0.5060 ca         1 W66       0.332900
     11 C15         -2.7610    -1.3720    -0.8480 ca         1 W66      -0.128300
     12 C14         -1.4700    -0.8220    -0.9500 ca         1 W66      -0.074000
     13 C13         -0.3620    -1.6530    -0.7070 ca         1 W66      -0.127300
     14 C12         -0.5920    -3.0030    -0.3710 ca         1 W66       0.336900
     15 N11         -1.8290    -3.5420    -0.2710 nb         1 W66      -0.664000
     16 C18         -4.3280     0.3910     0.1100 c3         1 W66      -0.078400
     17 N20         -5.8400     2.1070     1.0590 n7         1 W66      -0.857400
     18 C19         -5.5750     1.2680    -0.1240 c3         1 W66       0.155800
     19 C21         -7.0050     3.0040     0.9410 c3         1 W66       0.144100
     20 H021         6.8110    -0.3060     1.8270 hn         1 W66       0.467500
     21 H022         5.5280    -1.4120     2.1550 hn         1 W66       0.467500
     22 H03          6.4590     1.5560     0.2060 ha         1 W66       0.119000
     23 H071         4.6230     4.1210    -0.4870 hc         1 W66       0.046700
     24 H072         5.7560     3.2550    -1.5390 hc         1 W66       0.046700
     25 H073         4.0550     3.4000    -2.0030 hc         1 W66       0.046700
     26 H05          2.2860     1.9990    -0.8090 ha         1 W66       0.122000
     27 H081         1.3540    -0.9400     1.3390 hc         1 W66       0.055700
     28 H082         0.7360     0.5230     0.5970 hc         1 W66       0.055700
     29 H091         1.1460    -0.4590    -1.6850 hc         1 W66       0.059700
     30 H092         1.7740    -1.9190    -0.9430 hc         1 W66       0.059700
     31 H14         -1.3320     0.2260    -1.2100 ha         1 W66       0.117000
     32 H12          0.2420    -3.6760    -0.1740 h4         1 W66       0.021100
     33 H16         -3.8720    -3.1940    -0.4150 h4         1 W66       0.015100
     34 H171        -3.8320     0.1180    -1.9820 hc         1 W66       0.047700
     35 H172        -4.8590    -1.1440    -1.3240 hc         1 W66       0.047700
     36 H181        -4.4870    -0.2400     0.9930 hc         1 W66       0.049700
     37 H182        -3.4680     1.0370     0.3260 hc         1 W66       0.049700
     38 H191        -5.4070     1.8980    -1.0080 h1         1 W66       0.028200
     39 H192        -6.4360     0.6180    -0.3330 h1         1 W66       0.028200
     40 H20         -5.9960     1.4850     1.8630 hn         1 W66       0.405000
     41 H211        -7.1290     3.5990     1.8560 h1         1 W66       0.029367
     42 H212        -6.8810     3.6980     0.0990 h1         1 W66       0.029367
     43 H213        -7.9280     2.4300     0.7800 h1         1 W66       0.029367
     44 C08          1.4510    -0.2970     0.4560 c3         1 W66      -0.124700
     45 C17         -3.9920    -0.5100    -1.0970 c3         1 W66      -0.026100
@<TRIPOS>BOND
     1     1     4 1   
     2     1    23 1   
     3     1    24 1   
     4     1    25 1   
     5     2     3 ar  
     6     2     8 ar  
     7     2    44 1   
     8     3     4 ar  
     9     3    26 1   
    10     4     5 ar  
    11     5     6 ar  
    12     5    22 1   
    13     6     7 1   
    14     6     8 ar  
    15     7    20 1   
    16     7    21 1   
    17     9    13 1   
    18     9    29 1   
    19     9    30 1   
    20     9    44 1   
    21    10    11 ar  
    22    10    15 ar  
    23    10    33 1   
    24    11    12 ar  
    25    11    45 1   
    26    12    13 ar  
    27    12    31 1   
    28    13    14 ar  
    29    14    15 ar  
    30    14    32 1   
    31    16    18 1   
    32    16    36 1   
    33    16    37 1   
    34    16    45 1   
    35    17    18 1   
    36    17    19 1   
    37    17    40 1   
    38    18    38 1   
    39    18    39 1   
    40    19    41 1   
    41    19    42 1   
    42    19    43 1   
    43    27    44 1   
    44    28    44 1   
    45    34    45 1   
    46    35    45 1   
@<TRIPOS>SUBSTRUCTURE
     1 W66         1 TEMP              0 ****  ****    0 ROOT
