@<TRIPOS>MOLECULE
W66
   45    46     1     0     0
SMALL
bcc


@<TRIPOS>ATOM
      1 C07          4.5890     3.5880    -0.2750 c3         1 W66      -0.053800
      2 C06          2.7950     0.3140     0.3200 ca         1 W66       0.461600
      3 C05          3.0050     1.6650     0.1020 ca         1 W66      -0.297300
      4 C04          4.3120     2.1290    -0.0780 ca         1 W66       0.001700
      5 C03          5.3400     1.2080    -0.0390 ca         1 W66      -0.316300
      6 C02          5.0360    -0.1450     0.1860 ca         1 W66       0.664200
      7 N02          6.0220    -1.0910     0.1870 nv         1 W66      -0.943500
      8 N01          3.7900    -0.5730     0.3640 nb         1 W66      -0.753000
      9 C09          1.0060    -1.1630    -0.6570 c3         1 W66      -0.023100
     10 C16         -2.8480    -2.7520     0.0170 ca         1 W66       0.398200
     11 C15         -2.7760    -1.5000    -0.5860 ca         1 W66      -0.193600
     12 C14         -1.5050    -0.9890    -0.8240 ca         1 W66      -0.092000
     13 C13         -0.3760    -1.7120    -0.4630 ca         1 W66      -0.192600
     14 C12         -0.5850    -2.9530     0.1340 ca         1 W66       0.402200
     15 N11         -1.7850    -3.4660     0.3680 nb         1 W66      -0.664000
     16 C18         -4.2450     0.4390     0.0440 c3         1 W66      -0.078400
     17 N20         -5.7130     2.3130     0.6400 n7         1 W66      -0.802200
     18 C19         -5.5110     1.2140    -0.2840 c3         1 W66       0.155800
     19 C21         -6.9170     3.0660     0.3540 c3         1 W66       0.144100
     20 H021         6.9620    -0.7800     0.3660 hn         1 W66       0.412300
     21 H022         5.7900    -1.9680     0.6250 hn         1 W66       0.412300
     22 H03          6.3690     1.5170    -0.1820 ha         1 W66       0.137000
     23 H071         4.7580     4.0760     0.6880 hc         1 W66       0.046700
     24 H072         5.4790     3.7510    -0.8820 hc         1 W66       0.046700
     25 H073         3.7500     4.0940    -0.7510 hc         1 W66       0.046700
     26 H05          2.1670     2.3500     0.0740 ha         1 W66       0.140000
     27 H081         1.3650    -0.8020     1.4370 hc         1 W66       0.055700
     28 H082         0.6900     0.5780     0.5830 hc         1 W66       0.055700
     29 H091         1.0540    -0.6060    -1.5960 hc         1 W66       0.059700
     30 H092         1.7300    -1.9770    -0.7310 hc         1 W66       0.059700
     31 H14         -1.3940    -0.0190    -1.3000 ha         1 W66       0.135000
     32 H12          0.2670    -3.5590     0.4280 h4         1 W66       0.021100
     33 H16         -3.8180    -3.1960     0.2200 h4         1 W66       0.015100
     34 H171        -3.9430    -0.3360    -1.9430 hc         1 W66       0.047700
     35 H172        -4.8800    -1.3900    -0.9020 hc         1 W66       0.047700
     36 H181        -4.3060     0.0490     1.0650 hc         1 W66       0.049700
     37 H182        -3.3880     1.1180     0.0180 hc         1 W66       0.049700
     38 H191        -5.4290     1.6280    -1.2950 h1         1 W66       0.028200
     39 H192        -6.3670     0.5200    -0.3080 h1         1 W66       0.028200
     40 H20         -5.7790     1.9380     1.5780 hn         1 W66       0.349800
     41 H211        -7.0600     3.8380     1.1110 h1         1 W66       0.029367
     42 H212        -6.8230     3.5660    -0.6120 h1         1 W66       0.029367
     43 H213        -7.8320     2.4570     0.3180 h1         1 W66       0.029367
     44 C08          1.4100    -0.2390     0.5000 c3         1 W66      -0.124700
     45 C17         -4.0150    -0.7240    -0.9230 c3         1 W66      -0.026100
@<TRIPOS>BOND
     1     1     4 1   
     2     1    23 1   
     3     1    24 1   
     4     1    25 1   
     5     2     3 ar  
     6     2     8 ar  
     7     2    44 1   
     8     3     4 ar  
     9     3    26 1   
    10     4     5 ar  
    11     5     6 ar  
    12     5    22 1   
    13     6     7 1   
    14     6     8 ar  
    15     7    20 1   
    16     7    21 1   
    17     9    13 1   
    18     9    29 1   
    19     9    30 1   
    20     9    44 1   
    21    10    11 ar  
    22    10    15 ar  
    23    10    33 1   
    24    11    12 ar  
    25    11    45 1   
    26    12    13 ar  
    27    12    31 1   
    28    13    14 ar  
    29    14    15 ar  
    30    14    32 1   
    31    16    18 1   
    32    16    36 1   
    33    16    37 1   
    34    16    45 1   
    35    17    18 1   
    36    17    19 1   
    37    17    40 1   
    38    18    38 1   
    39    18    39 1   
    40    19    41 1   
    41    19    42 1   
    42    19    43 1   
    43    27    44 1   
    44    28    44 1   
    45    34    45 1   
    46    35    45 1   
@<TRIPOS>SUBSTRUCTURE
     1 W66         1 TEMP              0 ****  ****    0 ROOT
