@<TRIPOS>MOLECULE
W67
   48    49     1     0     0
SMALL
bcc


@<TRIPOS>ATOM
      1 N01          3.1430    -1.0420    -0.6420 nb         1 W67      -0.757000
      2 C02          4.3210    -1.6260    -0.8330 ca         1 W67       0.670200
      3 N02          4.4400    -2.4470    -1.9160 nv         1 W67      -0.950500
      4 C03          5.4230    -1.3880     0.0080 ca         1 W67      -0.316300
      5 C04          5.2860    -0.5060     1.0600 ca         1 W67       0.002700
      6 C05          4.0430     0.1110     1.2440 ca         1 W67      -0.298300
      7 C06          3.0080    -0.1910     0.3780 ca         1 W67       0.462600
      8 C07          6.4320    -0.1970     1.9740 c3         1 W67      -0.053800
      9 C08          1.6540     0.4400     0.5350 c3         1 W67      -0.124700
     10 C09          1.3000     1.3590    -0.6420 c3         1 W67      -0.023100
     11 N11         -1.4510     3.7600     0.2600 nb         1 W67      -0.663000
     12 C12         -0.2590     3.2160     0.0530 ca         1 W67       0.398200
     13 C13         -0.0710     1.9450    -0.4810 ca         1 W67      -0.193600
     14 C14         -1.2120     1.2240    -0.8100 ca         1 W67      -0.090000
     15 C15         -2.4740     1.7670    -0.5980 ca         1 W67      -0.192600
     16 C16         -2.5250     3.0470    -0.0560 ca         1 W67       0.399200
     17 C17         -3.7260     0.9970    -0.9020 c3         1 W67      -0.027100
     18 C18         -3.9430    -0.1600     0.0760 c3         1 W67      -0.076400
     19 C19         -5.2230    -0.9190    -0.2420 c3         1 W67       0.164800
     20 C22         -6.8710    -2.4780     0.4950 c3         1 W67       0.149600
     21 N20         -5.5310    -1.9740     0.7080 n3         1 W67      -0.711600
     22 C21         -4.5690    -3.0550     0.6660 c3         1 W67       0.149600
     23 H021         5.1910    -3.1150    -1.9230 hn         1 W67       0.415800
     24 H022         3.5820    -2.7770    -2.3260 hn         1 W67       0.415800
     25 H03          6.3640    -1.8950    -0.1730 ha         1 W67       0.137000
     26 H05          3.8870     0.8100     2.0560 ha         1 W67       0.140000
     27 H071         6.8440     0.7890     1.7500 hc         1 W67       0.046700
     28 H072         6.1110    -0.1790     3.0150 hc         1 W67       0.046700
     29 H073         7.2370    -0.9240     1.8750 hc         1 W67       0.046700
     30 H081         0.8970    -0.3450     0.6130 hc         1 W67       0.054700
     31 H082         1.6180     1.0110     1.4660 hc         1 W67       0.054700
     32 H091         2.0420     2.1570    -0.7150 hc         1 W67       0.059700
     33 H092         1.3540     0.7850    -1.5700 hc         1 W67       0.059700
     34 H12          0.6030     3.8210     0.3200 h4         1 W67       0.017100
     35 H14         -1.1170     0.2310    -1.2370 ha         1 W67       0.137000
     36 H16         -3.4880     3.5160     0.1270 h4         1 W67       0.016100
     37 H171        -4.5860     1.6710    -0.8680 hc         1 W67       0.047700
     38 H172        -3.6780     0.6030    -1.9220 hc         1 W67       0.047700
     39 H181        -3.0770    -0.8240     0.0330 hc         1 W67       0.051200
     40 H182        -3.9940     0.2270     1.0980 hc         1 W67       0.051200
     41 H191        -6.0560    -0.2090    -0.2290 h1         1 W67       0.028200
     42 H192        -5.1680    -1.3100    -1.2740 h1         1 W67       0.028200
     43 H221        -7.0140    -2.9300    -0.4990 h1         1 W67       0.029867
     44 H222        -7.1070    -3.2390     1.2400 h1         1 W67       0.029867
     45 H223        -7.5990    -1.6710     0.6010 h1         1 W67       0.029867
     46 H211        -3.5740    -2.7080     0.9410 h1         1 W67       0.029867
     47 H212        -4.8520    -3.8270     1.3830 h1         1 W67       0.029867
     48 H213        -4.4990    -3.5320    -0.3250 h1         1 W67       0.029867
@<TRIPOS>BOND
     1     1     2 ar  
     2     1     7 ar  
     3     2     3 1   
     4     2     4 ar  
     5     3    23 1   
     6     3    24 1   
     7     4     5 ar  
     8     4    25 1   
     9     5     6 ar  
    10     5     8 1   
    11     6     7 ar  
    12     6    26 1   
    13     7     9 1   
    14     8    27 1   
    15     8    28 1   
    16     8    29 1   
    17     9    10 1   
    18     9    30 1   
    19     9    31 1   
    20    10    13 1   
    21    10    32 1   
    22    10    33 1   
    23    11    12 ar  
    24    11    16 ar  
    25    12    13 ar  
    26    12    34 1   
    27    13    14 ar  
    28    14    15 ar  
    29    14    35 1   
    30    15    16 ar  
    31    15    17 1   
    32    16    36 1   
    33    17    18 1   
    34    17    37 1   
    35    17    38 1   
    36    18    19 1   
    37    18    39 1   
    38    18    40 1   
    39    19    21 1   
    40    19    41 1   
    41    19    42 1   
    42    20    21 1   
    43    20    43 1   
    44    20    44 1   
    45    20    45 1   
    46    21    22 1   
    47    22    46 1   
    48    22    47 1   
    49    22    48 1   
@<TRIPOS>SUBSTRUCTURE
     1 W67         1 TEMP              0 ****  ****    0 ROOT
