@<TRIPOS>MOLECULE
W67
   48    49     1     0     0
SMALL
No Charge or Current Charge


@<TRIPOS>ATOM
      1 N01          3.2380    -1.4510    -0.4510 nb         1 W67      -0.757000
      2 C02          4.4640    -1.9120    -0.6470 ca         1 W67       0.604900
      3 N02          4.4540    -2.9850    -1.4390 nv         1 W67      -1.060900
      4 C03          5.6260    -1.3690    -0.0960 ca         1 W67      -0.233000
      5 C04          5.5090    -0.2420     0.7310 ca         1 W67       0.002700
      6 C05          4.2180     0.2660     0.9470 ca         1 W67      -0.215000
      7 C06          3.1130    -0.3650     0.3430 ca         1 W67       0.397300
      8 C07          6.7290     0.4090     1.3600 c3         1 W67      -0.053800
      9 C08          1.7040     0.1680     0.5560 c3         1 W67      -0.124700
     10 C09          1.3750     1.3540    -0.3770 c3         1 W67      -0.023100
     11 N11         -1.4480     3.6340     0.8020 nb         1 W67      -0.663000
     12 C12         -0.2250     3.1070     0.5620 ca         1 W67       0.332900
     13 C13         -0.0280     1.9000    -0.1410 ca         1 W67      -0.128300
     14 C14         -1.1550     1.2080    -0.6180 ca         1 W67      -0.072000
     15 C15         -2.4310     1.7470    -0.3740 ca         1 W67      -0.127300
     16 C16         -2.5260     2.9600     0.3400 ca         1 W67       0.333900
     17 C17         -3.6820     1.0310    -0.8660 c3         1 W67      -0.027100
     18 C18         -4.0750    -0.1480     0.0510 c3         1 W67      -0.076400
     19 C19         -5.3420    -0.8900    -0.4350 c3         1 W67       0.164800
     20 C22         -7.1810    -2.4360     0.0860 c3         1 W67       0.149600
     21 N20         -5.8480    -1.9350     0.4910 n3         1 W67      -0.711600
     22 C21         -4.8920    -3.0450     0.7250 c3         1 W67       0.149600
     23 H021         5.2450    -3.6150    -1.3780 hn         1 W67       0.471000
     24 H022         3.5440    -3.4090    -1.5740 hn         1 W67       0.471000
     25 H03          6.5950    -1.8100    -0.3080 ha         1 W67       0.119000
     26 H05          4.0670     1.1410     1.5750 ha         1 W67       0.122000
     27 H071         7.1180     1.2090     0.7190 hc         1 W67       0.046700
     28 H072         6.4880     0.8470     2.3360 hc         1 W67       0.046700
     29 H073         7.5350    -0.3190     1.5150 hc         1 W67       0.046700
     30 H081         0.9670    -0.6300     0.4000 hc         1 W67       0.054700
     31 H082         1.5870     0.4900     1.5970 hc         1 W67       0.054700
     32 H091         2.1210     2.1450    -0.2300 hc         1 W67       0.059700
     33 H092         1.4770     1.0290    -1.4200 hc         1 W67       0.059700
     34 H12          0.6240     3.6700     0.9490 h4         1 W67       0.017100
     35 H14         -1.0420     0.2730    -1.1640 ha         1 W67       0.119000
     36 H16         -3.4970     3.4060     0.5500 h4         1 W67       0.016100
     37 H171        -4.5220     1.7340    -0.9280 hc         1 W67       0.047700
     38 H172        -3.5200     0.6560    -1.8840 hc         1 W67       0.047700
     39 H181        -3.2330    -0.8470     0.1030 hc         1 W67       0.051200
     40 H182        -4.2480     0.2300     1.0660 hc         1 W67       0.051200
     41 H191        -6.1270    -0.1360    -0.5840 h1         1 W67       0.028200
     42 H192        -5.1340    -1.3320    -1.4200 h1         1 W67       0.028200
     43 H221        -7.1290    -2.9470    -0.8850 h1         1 W67       0.029867
     44 H222        -7.5720    -3.1450     0.8280 h1         1 W67       0.029867
     45 H223        -7.8980    -1.6080     0.0020 h1         1 W67       0.029867
     46 H211        -3.9630    -2.6810     1.1830 h1         1 W67       0.029867
     47 H212        -5.3230    -3.7890     1.4090 h1         1 W67       0.029867
     48 H213        -4.6400    -3.5510    -0.2170 h1         1 W67       0.029867
@<TRIPOS>BOND
     1     1     2 ar  
     2     1     7 ar  
     3     2     3 1   
     4     2     4 ar  
     5     3    23 1   
     6     3    24 1   
     7     4     5 ar  
     8     4    25 1   
     9     5     6 ar  
    10     5     8 1   
    11     6     7 ar  
    12     6    26 1   
    13     7     9 1   
    14     8    27 1   
    15     8    28 1   
    16     8    29 1   
    17     9    10 1   
    18     9    30 1   
    19     9    31 1   
    20    10    13 1   
    21    10    32 1   
    22    10    33 1   
    23    11    12 ar  
    24    11    16 ar  
    25    12    13 ar  
    26    12    34 1   
    27    13    14 ar  
    28    14    15 ar  
    29    14    35 1   
    30    15    16 ar  
    31    15    17 1   
    32    16    36 1   
    33    17    18 1   
    34    17    37 1   
    35    17    38 1   
    36    18    19 1   
    37    18    39 1   
    38    18    40 1   
    39    19    21 1   
    40    19    41 1   
    41    19    42 1   
    42    20    21 1   
    43    20    43 1   
    44    20    44 1   
    45    20    45 1   
    46    21    22 1   
    47    22    46 1   
    48    22    47 1   
    49    22    48 1   
@<TRIPOS>SUBSTRUCTURE
     1 W67         1 TEMP              0 ****  ****    0 ROOT
