@<TRIPOS>MOLECULE
W68
   46    47     1     0     0
SMALL
bcc


@<TRIPOS>ATOM
      1 F13          2.1760     4.0630    -0.6280 f          1 W68      -0.147900
      2 C13          1.8890     2.8350    -0.1590 ca         1 W68       0.135900
      3 C14          2.9320     1.9860     0.1480 ca         1 W68      -0.172000
      4 C15          2.6410     0.7150     0.6400 ca         1 W68      -0.048300
      5 C17          3.7530    -0.2410     0.9670 c3         1 W68      -0.033100
      6 C18          4.3770    -0.8720    -0.2790 c3         1 W68      -0.077400
      7 C19          5.4870    -1.8450     0.0860 c3         1 W68       0.154800
      8 N20          6.0930    -2.4310    -1.0930 n7         1 W68      -0.800200
      9 C21          7.1620    -3.3520    -0.7650 c3         1 W68       0.144100
     10 C12          0.5640     2.4830     0.0060 ca         1 W68      -0.172000
     11 C11          0.2660     1.2170     0.5010 ca         1 W68      -0.049300
     12 C16          1.3090     0.3470     0.8070 ca         1 W68      -0.138000
     13 C09         -1.1630     0.7870     0.6700 c3         1 W68      -0.030100
     14 C08         -1.7260     0.1590    -0.6110 c3         1 W68      -0.123700
     15 C06         -3.1490    -0.2900    -0.4320 ca         1 W68       0.461600
     16 N01         -3.3450    -1.2880     0.4340 nb         1 W68      -0.753000
     17 C02         -4.5860    -1.7100     0.6500 ca         1 W68       0.663200
     18 N02         -4.7450    -2.7610     1.5080 nv         1 W68      -0.940500
     19 C03         -5.6960    -1.1450    -0.0030 ca         1 W68      -0.314300
     20 C04         -5.4960    -0.1120    -0.8940 ca         1 W68       0.001700
     21 C05         -4.1840     0.3240    -1.1130 ca         1 W68      -0.297300
     22 C07         -6.6450     0.5480    -1.5930 c3         1 W68      -0.053800
     23 H1           3.9570     2.3110     0.0150 ha         1 W68       0.147000
     24 H2           4.5310     0.2790     1.5320 hc         1 W68       0.048200
     25 H3           3.3710    -1.0330     1.6160 hc         1 W68       0.048200
     26 H4           3.6090    -1.3920    -0.8570 hc         1 W68       0.050700
     27 H5           4.7790    -0.0840    -0.9250 hc         1 W68       0.050700
     28 H6           6.2230    -1.3300     0.7270 h1         1 W68       0.027200
     29 H7           5.0710    -2.6540     0.6950 h1         1 W68       0.027200
     30 H8           6.4700    -1.6870    -1.6670 hn         1 W68       0.348800
     31 H10          7.6270    -3.7240    -1.6780 h1         1 W68       0.029033
     32 H11          7.9520    -2.9180    -0.1360 h1         1 W68       0.029033
     33 H12          6.7580    -4.2120    -0.2270 h1         1 W68       0.029033
     34 H13         -0.2220     3.1890    -0.2330 ha         1 W68       0.148000
     35 H14          1.0760    -0.6390     1.1940 ha         1 W68       0.138000
     36 H15         -1.2400     0.0610     1.4820 hc         1 W68       0.057700
     37 H16         -1.7800     1.6450     0.9500 hc         1 W68       0.057700
     38 H17         -1.6650     0.8790    -1.4300 hc         1 W68       0.057700
     39 H18         -1.1080    -0.6990    -0.8910 hc         1 W68       0.057700
     40 H19         -3.9780    -2.9340     2.1370 hn         1 W68       0.411300
     41 H20         -5.6510    -2.8770     1.9310 hn         1 W68       0.411300
     42 H21         -6.6930    -1.5220     0.1960 ha         1 W68       0.137000
     43 H22         -3.9810     1.1330    -1.8040 ha         1 W68       0.140000
     44 H23         -6.8710     1.5100    -1.1300 hc         1 W68       0.046700
     45 H24         -6.4100     0.7440    -2.6390 hc         1 W68       0.046700
     46 H25         -7.5470    -0.0600    -1.5520 hc         1 W68       0.046700
@<TRIPOS>BOND
     1     1     2 1   
     2     2     3 ar  
     3     2    10 ar  
     4     3     4 ar  
     5     3    23 1   
     6     4     5 1   
     7     4    12 ar  
     8     5     6 1   
     9     5    24 1   
    10     5    25 1   
    11     6     7 1   
    12     6    26 1   
    13     6    27 1   
    14     7     8 1   
    15     7    28 1   
    16     7    29 1   
    17     8     9 1   
    18     8    30 1   
    19     9    31 1   
    20     9    32 1   
    21     9    33 1   
    22    10    11 ar  
    23    10    34 1   
    24    11    12 ar  
    25    11    13 1   
    26    12    35 1   
    27    13    14 1   
    28    13    36 1   
    29    13    37 1   
    30    14    15 1   
    31    14    38 1   
    32    14    39 1   
    33    15    16 ar  
    34    15    21 ar  
    35    16    17 ar  
    36    17    18 1   
    37    17    19 ar  
    38    18    40 1   
    39    18    41 1   
    40    19    20 ar  
    41    19    42 1   
    42    20    21 ar  
    43    20    22 1   
    44    21    43 1   
    45    22    44 1   
    46    22    45 1   
    47    22    46 1   
@<TRIPOS>SUBSTRUCTURE
     1 W68         1 TEMP              0 ****  ****    0 ROOT
