@<TRIPOS>MOLECULE
W68
   46    47     1     0     0
SMALL
No Charge or Current Charge


@<TRIPOS>ATOM
      1 F13          2.1130     4.2330    -1.0570 f          1 W68      -0.183000
      2 C13          1.8710     3.0390    -0.4740 ca         1 W68       0.171000
      3 C14          2.9440     2.2330    -0.0650 ca         1 W68      -0.154000
      4 C15          2.6980     0.9870     0.5410 ca         1 W68      -0.048300
      5 C17          3.8570     0.1030     0.9810 c3         1 W68      -0.033100
      6 C18          4.2770    -0.8930    -0.1200 c3         1 W68      -0.077400
      7 C19          5.4510    -1.7980     0.3050 c3         1 W68       0.154800
      8 N20          5.8020    -2.7280    -0.7830 n7         1 W68      -0.855400
      9 C21          6.9070    -3.6580    -0.4800 c3         1 W68       0.144100
     10 C12          0.5480     2.6120    -0.2860 ca         1 W68      -0.154000
     11 C11          0.2890     1.3680     0.3190 ca         1 W68      -0.049300
     12 C16          1.3680     0.5600     0.7280 ca         1 W68      -0.120000
     13 C09         -1.1440     0.8930     0.5200 c3         1 W68      -0.030100
     14 C08         -1.6370     0.0250    -0.6580 c3         1 W68      -0.123700
     15 C06         -3.0760    -0.4340    -0.4800 ca         1 W68       0.396300
     16 N01         -3.2600    -1.6890    -0.0130 nb         1 W68      -0.753000
     17 C02         -4.5110    -2.0910     0.1500 ca         1 W68       0.597900
     18 N02         -4.5610    -3.3380     0.6210 nv         1 W68      -1.050900
     19 C03         -5.6450    -1.3200    -0.1150 ca         1 W68      -0.231000
     20 C04         -5.4670    -0.0160    -0.6000 ca         1 W68       0.001700
     21 C05         -4.1470     0.4290    -0.7820 ca         1 W68      -0.214000
     22 C07         -6.6530     0.8830    -0.9090 c3         1 W68      -0.053800
     23 H1           3.9630     2.5780    -0.2210 ha         1 W68       0.129000
     24 H2           4.7200     0.7220     1.2550 hc         1 W68       0.048200
     25 H3           3.5810    -0.4540     1.8850 hc         1 W68       0.048200
     26 H4           3.4160    -1.5190    -0.3840 hc         1 W68       0.050700
     27 H5           4.5570    -0.3330    -1.0210 hc         1 W68       0.050700
     28 H6           6.3140    -1.1680     0.5630 h1         1 W68       0.027200
     29 H7           5.1630    -2.3570     1.2060 h1         1 W68       0.027200
     30 H8           6.0700    -2.1710    -1.6050 hn         1 W68       0.404000
     31 H10          7.1000    -4.3200    -1.3340 h1         1 W68       0.029033
     32 H11          7.8330    -3.1080    -0.2590 h1         1 W68       0.029033
     33 H12          6.6640    -4.2850     0.3890 h1         1 W68       0.029033
     34 H13         -0.2720     3.2470    -0.6120 ha         1 W68       0.130000
     35 H14          1.1730    -0.4060     1.1890 ha         1 W68       0.120000
     36 H15         -1.2230     0.3160     1.4490 hc         1 W68       0.057700
     37 H16         -1.8130     1.7540     0.6390 hc         1 W68       0.057700
     38 H17         -1.5490     0.6000    -1.5870 hc         1 W68       0.057700
     39 H18         -0.9700    -0.8390    -0.7700 hc         1 W68       0.057700
     40 H19         -3.6830    -3.6860     0.9870 hn         1 W68       0.466500
     41 H20         -5.4030    -3.6260     1.1060 hn         1 W68       0.466500
     42 H21         -6.6390    -1.7250     0.0500 ha         1 W68       0.119000
     43 H22         -3.9490     1.4320    -1.1500 ha         1 W68       0.122000
     44 H23         -6.9190     1.4900    -0.0360 hc         1 W68       0.046700
     45 H24         -6.4300     1.5660    -1.7370 hc         1 W68       0.046700
     46 H25         -7.5350     0.2970    -1.1930 hc         1 W68       0.046700
@<TRIPOS>BOND
     1     1     2 1   
     2     2     3 ar  
     3     2    10 ar  
     4     3     4 ar  
     5     3    23 1   
     6     4     5 1   
     7     4    12 ar  
     8     5     6 1   
     9     5    24 1   
    10     5    25 1   
    11     6     7 1   
    12     6    26 1   
    13     6    27 1   
    14     7     8 1   
    15     7    28 1   
    16     7    29 1   
    17     8     9 1   
    18     8    30 1   
    19     9    31 1   
    20     9    32 1   
    21     9    33 1   
    22    10    11 ar  
    23    10    34 1   
    24    11    12 ar  
    25    11    13 1   
    26    12    35 1   
    27    13    14 1   
    28    13    36 1   
    29    13    37 1   
    30    14    15 1   
    31    14    38 1   
    32    14    39 1   
    33    15    16 ar  
    34    15    21 ar  
    35    16    17 ar  
    36    17    18 1   
    37    17    19 ar  
    38    18    40 1   
    39    18    41 1   
    40    19    20 ar  
    41    19    42 1   
    42    20    21 ar  
    43    20    22 1   
    44    21    43 1   
    45    22    44 1   
    46    22    45 1   
    47    22    46 1   
@<TRIPOS>SUBSTRUCTURE
     1 W68         1 TEMP              0 ****  ****    0 ROOT
