@<TRIPOS>MOLECULE
W69
   49    50     1     0     0
SMALL
No Charge or Current Charge


@<TRIPOS>ATOM
      1 F13          1.6460     4.4150    -0.3950 f          1 W69      -0.182000
      2 C13          1.4390     3.0990    -0.1710 ca         1 W69       0.171000
      3 C12          0.1890     2.5320    -0.4610 ca         1 W69      -0.150000
      4 C14          2.4760     2.3100     0.3490 ca         1 W69      -0.153000
      5 C15          2.2660     0.9390     0.5870 ca         1 W69      -0.049300
      6 C17          3.3860     0.0750     1.1480 c3         1 W69      -0.034100
      7 C18          4.2000    -0.6150     0.0330 c3         1 W69      -0.076400
      8 C19          5.3490    -1.4930     0.5820 c3         1 W69       0.164800
      9 N20          6.0690    -2.2940    -0.4400 n3         1 W69      -0.711600
     10 C21          6.7500    -1.4770    -1.4730 c3         1 W69       0.149600
     11 C22          6.9860    -3.2800     0.1730 c3         1 W69       0.149600
     12 C16          1.0100     0.3710     0.2930 ca         1 W69      -0.124000
     13 C11         -0.0320     1.1610    -0.2320 ca         1 W69      -0.050300
     14 C09         -1.3860     0.5380    -0.5400 c3         1 W69      -0.030100
     15 C08         -2.3230     0.5510     0.6870 c3         1 W69      -0.123700
     16 C06         -3.6710    -0.0920     0.3970 ca         1 W69       0.397300
     17 N01         -4.6960     0.7450     0.1220 nb         1 W69      -0.754000
     18 C02         -5.8700     0.1890    -0.1360 ca         1 W69       0.601900
     19 N02         -6.7930     1.1150    -0.3980 nv         1 W69      -1.055900
     20 C03         -6.1250    -1.1840    -0.1550 ca         1 W69      -0.232000
     21 C04         -5.0680    -2.0620     0.1290 ca         1 W69       0.001700
     22 C05         -3.8150    -1.4930     0.4080 ca         1 W69      -0.215000
     23 C07         -5.2680    -3.5680     0.1250 c3         1 W69      -0.053800
     24 H1          -0.6040     3.1580    -0.8620 ha         1 W69       0.134000
     25 H2           3.4390     2.7650     0.5660 ha         1 W69       0.129000
     26 H3           4.0610     0.6840     1.7620 hc         1 W69       0.047700
     27 H4           2.9710    -0.6890     1.8170 hc         1 W69       0.047700
     28 H5           3.5280    -1.2390    -0.5680 hc         1 W69       0.051700
     29 H6           4.6060     0.1570    -0.6300 hc         1 W69       0.051700
     30 H7           6.0580    -0.8470     1.1180 h1         1 W69       0.027700
     31 H8           4.9140    -2.1740     1.3270 h1         1 W69       0.027700
     32 H10          7.4910    -0.8070    -1.0170 h1         1 W69       0.030200
     33 H11          7.2710    -2.1210    -2.1950 h1         1 W69       0.030200
     34 H12          6.0330    -0.8680    -2.0380 h1         1 W69       0.030200
     35 H13          6.4450    -3.9330     0.8710 h1         1 W69       0.030200
     36 H14          7.4440    -3.9160    -0.5960 h1         1 W69       0.030200
     37 H15          7.7900    -2.7760     0.7270 h1         1 W69       0.030200
     38 H16          0.8440    -0.6880     0.4740 ha         1 W69       0.116000
     39 H17         -1.8700     1.0720    -1.3670 hc         1 W69       0.057700
     40 H18         -1.2540    -0.4960    -0.8830 hc         1 W69       0.057700
     41 H19         -1.8360     0.0210     1.5140 hc         1 W69       0.057200
     42 H20         -2.4560     1.5860     1.0240 hc         1 W69       0.057200
     43 H21         -6.4230     2.0390    -0.5840 hn         1 W69       0.469000
     44 H22         -7.6020     0.8330    -0.9410 hn         1 W69       0.469000
     45 H23         -7.1180    -1.5570    -0.3820 ha         1 W69       0.119000
     46 H24         -2.9590    -2.1240     0.6300 ha         1 W69       0.121000
     47 H25         -5.0480    -3.9880    -0.8630 hc         1 W69       0.046700
     48 H26         -4.6110    -4.0580     0.8530 hc         1 W69       0.046700
     49 H27         -6.3010    -3.8340     0.3810 hc         1 W69       0.046700
@<TRIPOS>BOND
     1     1     2 1   
     2     2     3 ar  
     3     2     4 ar  
     4     3    13 ar  
     5     3    24 1   
     6     4     5 ar  
     7     4    25 1   
     8     5     6 1   
     9     5    12 ar  
    10     6     7 1   
    11     6    26 1   
    12     6    27 1   
    13     7     8 1   
    14     7    28 1   
    15     7    29 1   
    16     8     9 1   
    17     8    30 1   
    18     8    31 1   
    19     9    10 1   
    20     9    11 1   
    21    10    32 1   
    22    10    33 1   
    23    10    34 1   
    24    11    35 1   
    25    11    36 1   
    26    11    37 1   
    27    12    13 ar  
    28    12    38 1   
    29    13    14 1   
    30    14    15 1   
    31    14    39 1   
    32    14    40 1   
    33    15    16 1   
    34    15    41 1   
    35    15    42 1   
    36    16    17 ar  
    37    16    22 ar  
    38    17    18 ar  
    39    18    19 1   
    40    18    20 ar  
    41    19    43 1   
    42    19    44 1   
    43    20    21 ar  
    44    20    45 1   
    45    21    22 ar  
    46    21    23 1   
    47    22    46 1   
    48    23    47 1   
    49    23    48 1   
    50    23    49 1   
@<TRIPOS>SUBSTRUCTURE
     1 W69         1 TEMP              0 ****  ****    0 ROOT
