@<TRIPOS>MOLECULE
W69
   49    50     1     0     0
SMALL
abcg2


@<TRIPOS>ATOM
      1 F13          1.5460     4.2930     0.3080 f          1 W69      -0.182000
      2 C13          1.3850     2.9580     0.3330 ca         1 W69       0.171000
      3 C12          0.1720     2.4310    -0.0640 ca         1 W69      -0.150000
      4 C14          2.4400     2.1710     0.7520 ca         1 W69      -0.153000
      5 C15          2.2780     0.7890     0.7770 ca         1 W69      -0.049300
      6 C17          3.4180    -0.1040     1.1740 c3         1 W69      -0.034100
      7 C18          4.1900    -0.6190    -0.0430 c3         1 W69      -0.076400
      8 C19          5.3660    -1.4890     0.3770 c3         1 W69       0.164800
      9 N20          6.0560    -2.1220    -0.7320 n3         1 W69      -0.711600
     10 C21          6.7070    -1.1640    -1.6000 c3         1 W69       0.149600
     11 C22          7.0070    -3.0990    -0.2460 c3         1 W69       0.149600
     12 C16          1.0590     0.2450     0.3790 ca         1 W69      -0.124000
     13 C11          0.0040     1.0480    -0.0430 ca         1 W69      -0.050300
     14 C09         -1.3180     0.4460    -0.4240 c3         1 W69      -0.030100
     15 C08         -2.2650     0.3550     0.7800 c3         1 W69      -0.123700
     16 C06         -3.6080    -0.1980     0.3940 ca         1 W69       0.397300
     17 N01         -4.3430     0.5650    -0.4180 nb         1 W69      -0.754000
     18 C02         -5.5320     0.1210    -0.8090 ca         1 W69       0.601900
     19 N02         -6.2780     0.9520    -1.5950 nv         1 W69      -1.055900
     20 C03         -6.0380    -1.1260    -0.4020 ca         1 W69      -0.232000
     21 C04         -5.2790    -1.9180     0.4330 ca         1 W69       0.001700
     22 C05         -4.0300    -1.4360     0.8430 ca         1 W69      -0.215000
     23 C07         -5.7590    -3.2650     0.8810 c3         1 W69      -0.053800
     24 H1          -0.6300     3.0840    -0.3860 ha         1 W69       0.134000
     25 H2           3.3740     2.6280     1.0560 ha         1 W69       0.129000
     26 H3           4.1020     0.4390     1.8320 hc         1 W69       0.047700
     27 H4           3.0380    -0.9540     1.7480 hc         1 W69       0.047700
     28 H5           3.5200    -1.1980    -0.6860 hc         1 W69       0.051700
     29 H6           4.5290     0.2380    -0.6310 hc         1 W69       0.051700
     30 H7           6.0600    -0.8880     0.9930 h1         1 W69       0.027700
     31 H8           4.9900    -2.2840     1.0290 h1         1 W69       0.027700
     32 H10          7.4310    -0.5220    -1.0710 h1         1 W69       0.030200
     33 H11          7.2470    -1.6910    -2.3880 h1         1 W69       0.030200
     34 H12          5.9810    -0.5150    -2.0880 h1         1 W69       0.030200
     35 H13          6.4970    -3.8490     0.3590 h1         1 W69       0.030200
     36 H14          7.4810    -3.6110    -1.0850 h1         1 W69       0.030200
     37 H15          7.8070    -2.6600     0.3720 h1         1 W69       0.030200
     38 H16          0.9300    -0.8320     0.3940 ha         1 W69       0.116000
     39 H17         -1.7930     1.0480    -1.2020 hc         1 W69       0.057700
     40 H18         -1.1660    -0.5530    -0.8390 hc         1 W69       0.057700
     41 H19         -1.8130    -0.2690     1.5540 hc         1 W69       0.057200
     42 H20         -2.3950     1.3530     1.2080 hc         1 W69       0.057200
     43 H21         -5.7740     1.6850    -2.0670 hn         1 W69       0.469000
     44 H22         -7.0160     0.5410    -2.1410 hn         1 W69       0.469000
     45 H23         -7.0140    -1.4520    -0.7430 ha         1 W69       0.119000
     46 H24         -3.4030    -2.0210     1.5040 ha         1 W69       0.121000
     47 H25         -5.2190    -4.0570     0.3600 hc         1 W69       0.046700
     48 H26         -5.5860    -3.4090     1.9480 hc         1 W69       0.046700
     49 H27         -6.8210    -3.4020     0.6840 hc         1 W69       0.046700
@<TRIPOS>BOND
     1     1     2 1   
     2     2     3 ar  
     3     2     4 ar  
     4     3    13 ar  
     5     3    24 1   
     6     4     5 ar  
     7     4    25 1   
     8     5     6 1   
     9     5    12 ar  
    10     6     7 1   
    11     6    26 1   
    12     6    27 1   
    13     7     8 1   
    14     7    28 1   
    15     7    29 1   
    16     8     9 1   
    17     8    30 1   
    18     8    31 1   
    19     9    10 1   
    20     9    11 1   
    21    10    32 1   
    22    10    33 1   
    23    10    34 1   
    24    11    35 1   
    25    11    36 1   
    26    11    37 1   
    27    12    13 ar  
    28    12    38 1   
    29    13    14 1   
    30    14    15 1   
    31    14    39 1   
    32    14    40 1   
    33    15    16 1   
    34    15    41 1   
    35    15    42 1   
    36    16    17 ar  
    37    16    22 ar  
    38    17    18 ar  
    39    18    19 1   
    40    18    20 ar  
    41    19    43 1   
    42    19    44 1   
    43    20    21 ar  
    44    20    45 1   
    45    21    22 ar  
    46    21    23 1   
    47    22    46 1   
    48    23    47 1   
    49    23    48 1   
    50    23    49 1   
@<TRIPOS>SUBSTRUCTURE
     1 W69         1 TEMP              0 ****  ****    0 ROOT
