@<TRIPOS>MOLECULE
W6A
   18    19     1     0     0
SMALL
bcc


@<TRIPOS>ATOM
      1 C10        -44.6620   -25.6320    -0.5800 ca         1 W6A      -0.144000
      2 C02        -42.4170   -30.0870     2.7950 c          1 W6A       0.939800
      3 C04        -43.2480   -29.1410     1.9640 cc         1 W6A      -0.091300
      4 C05        -44.5590   -29.2180     1.5710 cd         1 W6A      -0.203200
      5 C06        -44.8270   -28.0550     0.7980 ca         1 W6A      -0.093800
      6 C07        -45.9400   -27.5470     0.1240 ca         1 W6A       0.071400
      7 C09        -45.8670   -26.3540    -0.5590 ca         1 W6A      -0.174000
      8 C11        -43.5330   -26.0870     0.0710 ca         1 W6A      -0.141000
      9 C12        -43.6290   -27.2990     0.7550 ca         1 W6A      -0.071200
     10 N13        -42.7030   -27.9880     1.4710 na         1 W6A      -0.142400
     11 O01        -41.2410   -29.7260     2.9970 o          1 W6A      -0.813800
     12 O03        -42.9890   -31.1180     3.1850 o          1 W6A      -0.813800
     13 CL08       -47.4220   -28.4480     0.1640 cl         1 W6A      -0.150400
     14 H101       -44.6260   -24.6970    -1.1230 ha         1 W6A       0.110000
     15 H051       -45.2460   -30.0140     1.8050 ha         1 W6A       0.164000
     16 H091       -46.7340   -25.9680    -1.0780 ha         1 W6A       0.122000
     17 H111       -42.6090   -25.5240     0.0510 ha         1 W6A       0.119000
     18 H131       -41.7450   -27.7170     1.6290 hn         1 W6A       0.311700
@<TRIPOS>BOND
     1     1     7 ar  
     2     1     8 ar  
     3     1    14 1   
     4     2     3 1   
     5     2    11 1   
     6     2    12 1   
     7     3     4 2   
     8     3    10 1   
     9     4     5 1   
    10     4    15 1   
    11     5     6 ar  
    12     5     9 ar  
    13     6     7 ar  
    14     6    13 1   
    15     7    16 1   
    16     8     9 ar  
    17     8    17 1   
    18     9    10 1   
    19    10    18 1   
@<TRIPOS>SUBSTRUCTURE
     1 W6A         1 TEMP              0 ****  ****    0 ROOT
