@<TRIPOS>MOLECULE
W6A
   18    19     1     0     0
SMALL
No Charge or Current Charge


@<TRIPOS>ATOM
      1 C10        -44.7070   -25.5940    -0.6140 ca         1 W6A      -0.126000
      2 C02        -42.4680   -30.1750     2.8320 c          1 W6A       0.729200
      3 C04        -43.1430   -29.1370     1.9950 cc         1 W6A      -0.091300
      4 C05        -44.4700   -29.1660     1.5670 cd         1 W6A      -0.253200
      5 C06        -44.7770   -27.9980     0.7770 ca         1 W6A      -0.093800
      6 C07        -45.9490   -27.5730     0.1330 ca         1 W6A       0.163000
      7 C09        -45.9040   -26.3510    -0.5700 ca         1 W6A      -0.156000
      8 C11        -43.5450   -26.0530     0.0470 ca         1 W6A      -0.123000
      9 C12        -43.6210   -27.2710     0.7370 ca         1 W6A      -0.071200
     10 N13        -42.6350   -27.9320     1.4570 na         1 W6A      -0.192700
     11 O01        -41.2930   -30.0020     3.1250 o          1 W6A      -0.708500
     12 O03        -43.1050   -31.1550     3.1950 o          1 W6A      -0.708500
     13 Cl08       -47.4280   -28.5260     0.1970 cl         1 W6A      -0.242000
     14 H101       -44.6810   -24.6520    -1.1590 ha         1 W6A       0.092000
     15 H051       -45.1710   -29.9640     1.8010 ha         1 W6A       0.214000
     16 H091       -46.7930   -25.9900    -1.0810 ha         1 W6A       0.104000
     17 H111       -42.6220   -25.4790     0.0190 ha         1 W6A       0.101000
     18 H131       -41.6840   -27.6020     1.5830 hn         1 W6A       0.362000
@<TRIPOS>BOND
     1     1     7 ar  
     2     1     8 ar  
     3     1    14 1   
     4     2     3 1   
     5     2    11 1   
     6     2    12 1   
     7     3     4 2   
     8     3    10 1   
     9     4     5 1   
    10     4    15 1   
    11     5     6 ar  
    12     5     9 ar  
    13     6     7 ar  
    14     6    13 1   
    15     7    16 1   
    16     8     9 ar  
    17     8    17 1   
    18     9    10 1   
    19    10    18 1   
@<TRIPOS>SUBSTRUCTURE
     1 W6A         1 TEMP              0 ****  ****    0 ROOT
