@<TRIPOS>MOLECULE
W6B
   36    38     1     0     0
SMALL
No Charge or Current Charge


@<TRIPOS>ATOM
      1 N1          -5.3790     6.6580   -18.3630 nu         1 W6B      -0.993000
      2 C4          -7.1430     9.0730   -16.1630 ca         1 W6B      -0.133000
      3 C5          -6.4950     8.5170   -17.2780 ca         1 W6B      -0.185000
      4 C6          -6.0260     7.1880   -17.2520 ca         1 W6B       0.322000
      5 C7          -5.6520     4.9960   -15.9810 c          1 W6B       0.712600
      6 C8          -5.3800     6.9140   -19.7360 ca         1 W6B       0.377000
      7 C10         -6.5360     7.7500   -21.7170 ca         1 W6B      -0.069000
      8 C13         -4.2800     6.4960   -20.5330 cp         1 W6B      -0.103000
      9 C15         -2.2860     6.5030   -18.9690 ca         1 W6B      -0.075500
     10 C17         -0.8390     4.5580   -18.7490 ca         1 W6B      -0.101000
     11 C1          -6.1720     6.4140   -16.0750 ca         1 W6B      -0.165600
     12 C11         -5.4470     7.3670   -22.5110 ca         1 W6B      -0.183000
     13 C12         -4.3320     6.7430   -21.9300 ca         1 W6B       0.177000
     14 C14         -3.0900     5.8260   -19.9180 cp         1 W6B      -0.027000
     15 C16         -1.1700     5.8750   -18.3900 ca         1 W6B      -0.109000
     16 C18         -1.6260     3.8690   -19.6870 ca         1 W6B      -0.109000
     17 C19         -2.7430     4.4980   -20.2650 ca         1 W6B      -0.075500
     18 C2          -6.8320     6.9840   -14.9580 ca         1 W6B      -0.087000
     19 C3          -7.3150     8.3000   -15.0080 ca         1 W6B       0.088000
     20 C9          -6.5000     7.5180   -20.3350 ca         1 W6B      -0.194000
     21 F1          -7.9370     8.8290   -13.9320 f          1 W6B      -0.213000
     22 O1          -6.2140     4.2290   -15.2110 o          1 W6B      -0.706500
     23 O2          -4.6750     4.6750   -16.6460 o          1 W6B      -0.706500
     24 Cl1         -2.9940     6.3080   -22.9950 cl         1 W6B      -0.243000
     25 H1          -4.7940     5.8520   -18.0950 hn         1 W6B       0.575000
     26 H2          -7.5050    10.0980   -16.1910 ha         1 W6B       0.105000
     27 H3          -6.3430     9.1350   -18.1580 ha         1 W6B       0.105000
     28 H4          -7.4060     8.2200   -22.1710 ha         1 W6B       0.101000
     29 H7          -5.4680     7.5500   -23.5830 ha         1 W6B       0.115000
     30 H8          -0.5620     6.4100   -17.6630 ha         1 W6B       0.102000
     31 H9          -1.3730     2.8490   -19.9640 ha         1 W6B       0.102000
     32 H10         -3.3480     3.9550   -20.9870 ha         1 W6B       0.111000
     33 H11         -6.9650     6.4090   -14.0450 ha         1 W6B       0.149000
     34 H12         -7.3620     7.7890   -19.7340 ha         1 W6B       0.126000
     35 H5          -2.5320     7.5240   -18.6860 ha         1 W6B       0.111000
     36 H6           0.0240     4.0720   -18.3010 ha         1 W6B       0.099000
@<TRIPOS>BOND
     1     1     4 1   
     2     1     6 1   
     3     1    25 1   
     4     2     3 ar  
     5     2    19 ar  
     6     2    26 1   
     7     3     4 ar  
     8     3    27 1   
     9     4    11 ar  
    10     5    11 1   
    11     5    22 1   
    12     5    23 1   
    13     6     8 ar  
    14     6    20 ar  
    15     7    12 ar  
    16     7    20 ar  
    17     7    28 1   
    18     8    13 ar  
    19     8    14 1   
    20     9    14 ar  
    21     9    15 ar  
    22     9    35 1   
    23    10    15 ar  
    24    10    16 ar  
    25    10    36 1   
    26    11    18 ar  
    27    12    13 ar  
    28    12    29 1   
    29    13    24 1   
    30    14    17 ar  
    31    15    30 1   
    32    16    17 ar  
    33    16    31 1   
    34    17    32 1   
    35    18    19 ar  
    36    18    33 1   
    37    19    21 1   
    38    20    34 1   
@<TRIPOS>SUBSTRUCTURE
     1 W6B         1 TEMP              0 ****  ****    0 ROOT
