@<TRIPOS>MOLECULE
W6B
   36    38     1     0     0
SMALL
abcg2


@<TRIPOS>ATOM
      1 N1          -5.3250     6.5880   -18.3800 nu         1 W6B      -0.993000
      2 C4          -7.2090     8.9730   -16.2560 ca         1 W6B      -0.133000
      3 C5          -6.5490     8.4310   -17.3470 ca         1 W6B      -0.185000
      4 C6          -6.0120     7.1330   -17.3090 ca         1 W6B       0.322000
      5 C7          -5.5120     4.9970   -15.9180 c          1 W6B       0.712600
      6 C8          -5.3680     6.9250   -19.7210 ca         1 W6B       0.377000
      7 C10         -6.4720     7.8350   -21.6760 ca         1 W6B      -0.069000
      8 C13         -4.2650     6.5470   -20.5280 cp         1 W6B      -0.103000
      9 C15         -2.2160     6.5550   -19.0930 ca         1 W6B      -0.075500
     10 C17         -0.9390     4.5460   -18.7170 ca         1 W6B      -0.101000
     11 C1          -6.1190     6.3840   -16.1080 ca         1 W6B      -0.165600
     12 C11         -5.3950     7.4880   -22.4810 ca         1 W6B      -0.183000
     13 C12         -4.3170     6.8430   -21.8870 ca         1 W6B       0.177000
     14 C14         -3.1030     5.8540   -19.9130 cp         1 W6B      -0.027000
     15 C16         -1.1390     5.9070   -18.5020 ca         1 W6B      -0.109000
     16 C18         -1.8200     3.8390   -19.5280 ca         1 W6B      -0.109000
     17 C19         -2.8960     4.4900   -20.1220 ca         1 W6B      -0.075500
     18 C2          -6.7910     6.9460   -15.0220 ca         1 W6B      -0.087000
     19 C3          -7.3280     8.2100   -15.1100 ca         1 W6B       0.088000
     20 C9          -6.4680     7.5580   -20.3190 ca         1 W6B      -0.194000
     21 F1          -7.9860     8.7300   -14.0310 f          1 W6B      -0.213000
     22 O1          -5.8560     4.3530   -14.9020 o          1 W6B      -0.706500
     23 O2          -4.6860     4.5920   -16.7910 o          1 W6B      -0.706500
     24 CL1         -2.9530     6.4280   -22.9150 cl         1 W6B      -0.243000
     25 H1          -4.8020     5.7540   -18.0950 hn         1 W6B       0.575000
     26 H2          -7.6150     9.9760   -16.2930 ha         1 W6B       0.105000
     27 H3          -6.4250     9.0370   -18.2310 ha         1 W6B       0.105000
     28 H4          -7.3340     8.3190   -22.1180 ha         1 W6B       0.101000
     29 H7          -5.3880     7.7050   -23.5400 ha         1 W6B       0.115000
     30 H8          -0.4570     6.4630   -17.8710 ha         1 W6B       0.102000
     31 H9          -1.6730     2.7800   -19.6980 ha         1 W6B       0.102000
     32 H10         -3.5850     3.9390   -20.7500 ha         1 W6B       0.111000
     33 H11         -6.8820     6.3720   -14.1110 ha         1 W6B       0.149000
     34 H12         -7.3350     7.8010   -19.7250 ha         1 W6B       0.126000
     35 H5          -2.3770     7.6120   -18.9200 ha         1 W6B       0.111000
     36 H6          -0.1010     4.0400   -18.2530 ha         1 W6B       0.099000
@<TRIPOS>BOND
     1     1     4 1   
     2     1     6 1   
     3     1    25 1   
     4     2     3 ar  
     5     2    19 ar  
     6     2    26 1   
     7     3     4 ar  
     8     3    27 1   
     9     4    11 ar  
    10     5    11 1   
    11     5    22 1   
    12     5    23 1   
    13     6     8 ar  
    14     6    20 ar  
    15     7    12 ar  
    16     7    20 ar  
    17     7    28 1   
    18     8    13 ar  
    19     8    14 1   
    20     9    14 ar  
    21     9    15 ar  
    22     9    35 1   
    23    10    15 ar  
    24    10    16 ar  
    25    10    36 1   
    26    11    18 ar  
    27    12    13 ar  
    28    12    29 1   
    29    13    24 1   
    30    14    17 ar  
    31    15    30 1   
    32    16    17 ar  
    33    16    31 1   
    34    17    32 1   
    35    18    19 ar  
    36    18    33 1   
    37    19    21 1   
    38    20    34 1   
@<TRIPOS>SUBSTRUCTURE
     1 W6B         1 TEMP              0 ****  ****    0 ROOT
