@<TRIPOS>MOLECULE
W6C
   33    33     1     0     0
SMALL
abcg2


@<TRIPOS>ATOM
      1 N1          25.3240    17.4230   -11.9370 n2         1 W6C      -0.445300
      2 C7          23.9410    17.7260   -14.3510 c6         1 W6C      -0.161400
      3 C8          24.7490    18.8920   -13.7960 c6         1 W6C      -0.134700
      4 N2          25.2280    16.3600   -12.7960 n          1 W6C      -0.186800
      5 C9          25.7000    15.0810   -12.2740 c3         1 W6C       0.110300
      6 C1          25.7640    20.3080    -9.0210 c3         1 W6C       0.094700
      7 C5          25.1030    18.6050   -12.3730 ce         1 W6C       0.304300
      8 C6          24.5530    16.3970   -13.9930 c          1 W6C       0.547000
      9 C4          25.2620    19.7460   -11.4020 c          1 W6C       0.534800
     10 C3          23.2270    19.5020    -7.5640 c3         1 W6C       0.139900
     11 C2          24.5020    21.1360    -8.7400 c3         1 W6C       0.137600
     12 O2          24.4310    15.3850   -14.6700 o          1 W6C      -0.527000
     13 N           25.5850    19.3960   -10.1490 ns         1 W6C      -0.482900
     14 C           26.9790    21.2200    -9.1870 c3         1 W6C      -0.107100
     15 H1          23.8400    17.7760   -15.4340 hc         1 W6C       0.084200
     16 H2          22.9310    17.7280   -13.9260 hc         1 W6C       0.084200
     17 H3          25.6800    19.0160   -14.3610 hc         1 W6C       0.083700
     18 H4          24.2060    19.8310   -13.8700 hc         1 W6C       0.083700
     19 H5          26.1670    15.2740   -11.3130 h1         1 W6C       0.051367
     20 H6          24.8680    14.3860   -12.1520 h1         1 W6C       0.051367
     21 H7          26.4280    14.6440   -12.9560 h1         1 W6C       0.051367
     22 H8          25.9450    19.6560    -8.1660 h1         1 W6C       0.045700
     23 H9          22.2150    19.1000    -7.5440 h1         1 W6C       0.029033
     24 H10         23.9350    18.6720    -7.6460 h1         1 W6C       0.029033
     25 H11         23.4210    20.0410    -6.6290 h1         1 W6C       0.029033
     26 H12         24.6570    21.6750    -7.7970 h1         1 W6C       0.062700
     27 H13         24.3540    21.8620    -9.5370 h1         1 W6C       0.062700
     28 H14         25.6720    18.4060    -9.9760 hn         1 W6C       0.333500
     29 H15         27.1140    21.8260    -8.2890 hc         1 W6C       0.049367
     30 H16         27.8800    20.6240    -9.3350 hc         1 W6C       0.049367
     31 H17         26.8560    21.8860   -10.0400 hc         1 W6C       0.049367
     32 O           23.3050    20.3780    -8.6800 os         1 W6C      -0.448000
     33 O1          25.1030    20.9060   -11.7910 o          1 W6C      -0.605100
@<TRIPOS>BOND
     1     1     4 1   
     2     1     7 2   
     3     2     3 1   
     4     2     8 1   
     5     2    15 1   
     6     2    16 1   
     7     3     7 1   
     8     3    17 1   
     9     3    18 1   
    10     4     5 1   
    11     4     8 1   
    12     5    19 1   
    13     5    20 1   
    14     5    21 1   
    15     6    11 1   
    16     6    13 1   
    17     6    14 1   
    18     6    22 1   
    19     7     9 1   
    20     8    12 2   
    21     9    13 1   
    22     9    33 2   
    23    10    23 1   
    24    10    24 1   
    25    10    25 1   
    26    10    32 1   
    27    11    26 1   
    28    11    27 1   
    29    11    32 1   
    30    13    28 1   
    31    14    29 1   
    32    14    30 1   
    33    14    31 1   
@<TRIPOS>SUBSTRUCTURE
     1 W6C         1 TEMP              0 ****  ****    0 ROOT
