@<TRIPOS>MOLECULE
W6C
   33    33     1     0     0
SMALL
No Charge or Current Charge


@<TRIPOS>ATOM
      1 N1          25.1650    17.3550   -11.9160 n2         1 W6C      -0.445300
      2 C7          23.8920    17.6890   -14.4170 c6         1 W6C      -0.161400
      3 C8          24.7470    18.8520   -13.8470 c6         1 W6C      -0.134700
      4 N2          25.1400    16.2530   -12.7640 n          1 W6C      -0.186800
      5 C9          25.7920    14.9870   -12.3760 c3         1 W6C       0.110300
      6 C1          25.7310    20.3570    -8.9800 c3         1 W6C       0.094700
      7 C5          25.1050    18.5810   -12.3750 ce         1 W6C       0.304300
      8 C6          24.4970    16.3290   -14.0350 c          1 W6C       0.547000
      9 C4          25.2780    19.7660   -11.4290 c          1 W6C       0.534800
     10 C3          23.1910    19.5840    -7.4560 c3         1 W6C       0.139900
     11 C2          24.4780    21.2470    -8.7170 c3         1 W6C       0.137600
     12 O2          24.4730    15.3880   -14.8190 o          1 W6C      -0.527000
     13 N           25.5570    19.4280   -10.1110 ns         1 W6C      -0.482900
     14 C           27.0170    21.1970    -9.1370 c3         1 W6C      -0.107100
     15 H1          23.7180    17.7510   -15.4990 hc         1 W6C       0.084200
     16 H2          22.9210    17.7390   -13.9070 hc         1 W6C       0.084200
     17 H3          25.6780    18.9400   -14.4240 hc         1 W6C       0.083700
     18 H4          24.2160    19.8070   -13.9550 hc         1 W6C       0.083700
     19 H5          26.2320    15.0810   -11.3750 h1         1 W6C       0.051367
     20 H6          25.0520    14.1770   -12.3640 h1         1 W6C       0.051367
     21 H7          26.5860    14.7430   -13.0930 h1         1 W6C       0.051367
     22 H8          25.8830    19.7340    -8.0890 h1         1 W6C       0.045700
     23 H9          22.2110    19.0900    -7.4250 h1         1 W6C       0.029033
     24 H10         23.9590    18.8000    -7.4790 h1         1 W6C       0.029033
     25 H11         23.3090    20.1640    -6.5320 h1         1 W6C       0.029033
     26 H12         24.6320    21.8300    -7.7990 h1         1 W6C       0.062700
     27 H13         24.3690    21.9650    -9.5400 h1         1 W6C       0.062700
     28 H14         25.5990    18.4320    -9.9220 hn         1 W6C       0.333500
     29 H15         27.1960    21.7940    -8.2340 hc         1 W6C       0.049367
     30 H16         27.8860    20.5460    -9.2900 hc         1 W6C       0.049367
     31 H17         26.9450    21.8830    -9.9880 hc         1 W6C       0.049367
     32 O           23.2800    20.4380    -8.6130 os         1 W6C      -0.448000
     33 O1          25.1910    20.9380   -11.7870 o          1 W6C      -0.605100
@<TRIPOS>BOND
     1     1     4 1   
     2     1     7 2   
     3     2     3 1   
     4     2     8 1   
     5     2    15 1   
     6     2    16 1   
     7     3     7 1   
     8     3    17 1   
     9     3    18 1   
    10     4     5 1   
    11     4     8 1   
    12     5    19 1   
    13     5    20 1   
    14     5    21 1   
    15     6    11 1   
    16     6    13 1   
    17     6    14 1   
    18     6    22 1   
    19     7     9 1   
    20     8    12 2   
    21     9    13 1   
    22     9    33 2   
    23    10    23 1   
    24    10    24 1   
    25    10    25 1   
    26    10    32 1   
    27    11    26 1   
    28    11    27 1   
    29    11    32 1   
    30    13    28 1   
    31    14    29 1   
    32    14    30 1   
    33    14    31 1   
@<TRIPOS>SUBSTRUCTURE
     1 W6C         1 TEMP              0 ****  ****    0 ROOT
