@<TRIPOS>MOLECULE
W6D
   20    21     1     0     0
SMALL
bcc


@<TRIPOS>ATOM
      1 C10        -19.9850   -18.5390     8.4480 cc         1 W6D      -0.115100
      2 C02        -23.8430   -16.3390     8.8650 c          1 W6D       0.684700
      3 C04        -23.2940   -17.5300     9.5750 ca         1 W6D      -0.101600
      4 C05        -24.0170   -18.1890    10.5590 ca         1 W6D      -0.132000
      5 C06        -23.5150   -19.3260    11.2040 ca         1 W6D      -0.125000
      6 C07        -22.2710   -19.8340    10.8880 ca         1 W6D      -0.124000
      7 C08        -21.5420   -19.1780     9.9010 ca         1 W6D      -0.062200
      8 C11        -21.0110   -17.6510     8.2940 cd         1 W6D      -0.170200
      9 C12        -22.0300   -18.0370     9.2180 ca         1 W6D      -0.053800
     10 N01        -24.6980   -15.5760     9.5670 nt         1 W6D      -0.674000
     11 N09        -20.3020   -19.4540     9.4060 na         1 W6D      -0.174400
     12 O03        -23.5330   -16.0850     7.7080 o          1 W6D      -0.602100
     13 H101       -19.0370   -18.5890     7.9370 h4         1 W6D       0.163000
     14 H051       -25.0060   -17.8430    10.8300 ha         1 W6D       0.127000
     15 H061       -24.1180   -19.8150    11.9570 ha         1 W6D       0.131000
     16 H071       -21.8790   -20.7110    11.3870 ha         1 W6D       0.132000
     17 H111       -21.0300   -16.8300     7.5990 ha         1 W6D       0.175000
     18 H012       -25.0900   -14.7510     9.1430 hn         1 W6D       0.312000
     19 H011       -24.8320   -15.6910    10.5560 hn         1 W6D       0.312000
     20 H091       -19.7030   -20.2020     9.7130 hn         1 W6D       0.298700
@<TRIPOS>BOND
     1     1     8 2   
     2     1    11 1   
     3     1    13 1   
     4     2     3 1   
     5     2    10 1   
     6     2    12 2   
     7     3     4 ar  
     8     3     9 ar  
     9     4     5 ar  
    10     4    14 1   
    11     5     6 ar  
    12     5    15 1   
    13     6     7 ar  
    14     6    16 1   
    15     7     9 ar  
    16     7    11 1   
    17     8     9 1   
    18     8    17 1   
    19    10    18 1   
    20    10    19 1   
    21    11    20 1   
@<TRIPOS>SUBSTRUCTURE
     1 W6D         1 TEMP              0 ****  ****    0 ROOT
