@<TRIPOS>MOLECULE
W6D
   20    21     1     0     0
SMALL
No Charge or Current Charge


@<TRIPOS>ATOM
      1 C10        -19.9510   -18.6350     8.3140 cc         1 W6D      -0.165100
      2 C02        -23.7350   -16.1740     8.9810 c          1 W6D       0.617700
      3 C04        -23.2190   -17.4360     9.6520 ca         1 W6D      -0.101600
      4 C05        -23.9450   -18.0790    10.6960 ca         1 W6D      -0.114000
      5 C06        -23.4550   -19.2540    11.3150 ca         1 W6D      -0.107000
      6 C07        -22.2310   -19.8210    10.9120 ca         1 W6D      -0.106000
      7 C08        -21.5270   -19.1840     9.8870 ca         1 W6D      -0.062200
      8 C11        -20.9910   -17.7170     8.2980 cd         1 W6D      -0.220200
      9 C12        -21.9970   -18.0460     9.2840 ca         1 W6D      -0.053800
     10 N01        -24.9160   -15.6680     9.4040 nt         1 W6D      -0.607000
     11 N09        -20.3130   -19.5490     9.3240 na         1 W6D      -0.224700
     12 O03        -23.1470   -15.5930     8.0840 o          1 W6D      -0.602100
     13 H101       -19.0380   -18.7100     7.7270 h4         1 W6D       0.213000
     14 H051       -24.8940   -17.6790    11.0430 ha         1 W6D       0.109000
     15 H061       -24.0300   -19.7240    12.1110 ha         1 W6D       0.113000
     16 H071       -21.8490   -20.7240    11.3830 ha         1 W6D       0.114000
     17 H111       -21.0280   -16.8640     7.6230 ha         1 W6D       0.225000
     18 H012       -25.2750   -14.8310     8.9700 hn         1 W6D       0.312000
     19 H011       -25.4280   -16.1240    10.1430 hn         1 W6D       0.312000
     20 H091       -19.7680   -20.3600     9.6030 hn         1 W6D       0.349000
@<TRIPOS>BOND
     1     1     8 2   
     2     1    11 1   
     3     1    13 1   
     4     2     3 1   
     5     2    10 1   
     6     2    12 2   
     7     3     4 ar  
     8     3     9 ar  
     9     4     5 ar  
    10     4    14 1   
    11     5     6 ar  
    12     5    15 1   
    13     6     7 ar  
    14     6    16 1   
    15     7     9 ar  
    16     7    11 1   
    17     8     9 1   
    18     8    17 1   
    19    10    18 1   
    20    10    19 1   
    21    11    20 1   
@<TRIPOS>SUBSTRUCTURE
     1 W6D         1 TEMP              0 ****  ****    0 ROOT
