@<TRIPOS>MOLECULE
W6E
   24    26     1     0     0
SMALL
abcg2


@<TRIPOS>ATOM
      1 C4          -7.6270    -7.2190     9.1000 ca         1 W6E      -0.044000
      2 C5          -7.5120    -8.5720     8.9480 ca         1 W6E      -0.123000
      3 C6          -6.2980    -9.1340     8.4810 ca         1 W6E       0.026000
      4 C7          -6.2160   -10.5830     8.3430 cc         1 W6E      -0.144000
      5 C8          -6.9160   -11.6010     8.9500 cd         1 W6E       0.209900
      6 C9          -5.2260    -8.3240     8.1800 ca         1 W6E      -0.111000
      7 C10         -5.3250    -6.9240     8.3240 ca         1 W6E       0.092000
      8 N2          -5.5530    -4.2150     8.6290 nb         1 W6E      -0.226000
      9 C3          -6.5410    -6.3800     8.7900 ca         1 W6E      -0.203000
     10 N3          -6.4450   -12.7780     8.4960 nd         1 W6E      -0.358000
     11 C1          -4.4220    -4.8430     8.1900 ca         1 W6E       0.392900
     12 C2          -6.5680    -4.9720     8.9140 ca         1 W6E       0.178900
     13 N4          -5.5030   -12.5530     7.6450 nc         1 W6E      -0.192800
     14 N5          -5.3540   -11.2480     7.5490 na         1 W6E      -0.000200
     15 N6          -4.2710    -6.1400     8.0270 nb         1 W6E      -0.266000
     16 H4          -8.5530    -6.7830     9.4530 ha         1 W6E       0.120000
     17 H5          -8.3530    -9.2140     9.1700 ha         1 W6E       0.125000
     18 H6          -7.7040   -11.5400     9.6830 h4         1 W6E       0.051100
     19 H8          -4.2800    -8.7320     7.8450 ha         1 W6E       0.128000
     20 H2          -2.5570    -4.4030     7.4940 hn         1 W6E       0.503500
     21 H1          -3.5170    -3.0380     7.9230 hn         1 W6E       0.503500
     22 H3          -7.4730    -4.4820     9.2640 h4         1 W6E       0.024100
     23 H7          -4.6730   -10.8740     6.9020 hn         1 W6E       0.381000
     24 N1          -3.3840    -4.0330     7.9290 nv         1 W6E      -1.066900
@<TRIPOS>BOND
     1     1     2 ar  
     2     1     9 ar  
     3     1    16 1   
     4     2     3 ar  
     5     2    17 1   
     6     3     4 1   
     7     3     6 ar  
     8     4     5 2   
     9     4    14 1   
    10     5    10 1   
    11     5    18 1   
    12     6     7 ar  
    13     6    19 1   
    14     7     9 ar  
    15     7    15 ar  
    16     8    11 ar  
    17     8    12 ar  
    18     9    12 ar  
    19    10    13 2   
    20    11    15 ar  
    21    11    24 1   
    22    12    22 1   
    23    13    14 1   
    24    14    23 1   
    25    20    24 1   
    26    21    24 1   
@<TRIPOS>SUBSTRUCTURE
     1 W6E         1 TEMP              0 ****  ****    0 ROOT
