@<TRIPOS>MOLECULE
W6E
   24    26     1     0     0
SMALL
No Charge or Current Charge


@<TRIPOS>ATOM
      1 C4          -7.5620    -7.2030     9.2360 ca         1 W6E      -0.044000
      2 C5          -7.4600    -8.5920     9.0540 ca         1 W6E      -0.123000
      3 C6          -6.2910    -9.1630     8.5040 ca         1 W6E       0.026000
      4 C7          -6.1710   -10.6130     8.3080 cc         1 W6E      -0.144000
      5 C8          -7.1280   -11.5420     8.6160 cd         1 W6E       0.209900
      6 C9          -5.2260    -8.3100     8.1420 ca         1 W6E      -0.111000
      7 C10         -5.3120    -6.9170     8.3180 ca         1 W6E       0.092000
      8 N2          -5.5350    -4.1740     8.6870 nb         1 W6E      -0.226000
      9 C3          -6.4920    -6.3710     8.8690 ca         1 W6E      -0.203000
     10 N3          -6.6390   -12.7930     8.2850 nd         1 W6E      -0.358000
     11 C1          -4.4600    -4.7910     8.1740 ca         1 W6E       0.392900
     12 C2          -6.5600    -4.9740     9.0380 ca         1 W6E       0.178900
     13 N4          -5.4320   -12.6800     7.7900 nc         1 W6E      -0.192800
     14 N5          -5.1300   -11.3500     7.7970 na         1 W6E      -0.000200
     15 N6          -4.2910    -6.1060     7.9690 nb         1 W6E      -0.266000
     16 H4          -8.4700    -6.7790     9.6610 ha         1 W6E       0.120000
     17 H5          -8.3010    -9.2150     9.3450 ha         1 W6E       0.125000
     18 H6          -8.1140   -11.4060     9.0430 h4         1 W6E       0.051100
     19 H8          -4.3160    -8.7240     7.7170 ha         1 W6E       0.128000
     20 H2          -2.6970    -4.3920     7.2220 hn         1 W6E       0.503500
     21 H1          -3.5830    -2.9940     7.7290 hn         1 W6E       0.503500
     22 H3          -7.4410    -4.4900     9.4570 h4         1 W6E       0.024100
     23 H7          -4.2350   -11.0110     7.4560 hn         1 W6E       0.381000
     24 N1          -3.4230    -3.9950     7.8140 nv         1 W6E      -1.066900
@<TRIPOS>BOND
     1     1     2 ar  
     2     1     9 ar  
     3     1    16 1   
     4     2     3 ar  
     5     2    17 1   
     6     3     4 1   
     7     3     6 ar  
     8     4     5 2   
     9     4    14 1   
    10     5    10 1   
    11     5    18 1   
    12     6     7 ar  
    13     6    19 1   
    14     7     9 ar  
    15     7    15 ar  
    16     8    11 ar  
    17     8    12 ar  
    18     9    12 ar  
    19    10    13 2   
    20    11    15 ar  
    21    11    24 1   
    22    12    22 1   
    23    13    14 1   
    24    14    23 1   
    25    20    24 1   
    26    21    24 1   
@<TRIPOS>SUBSTRUCTURE
     1 W6E         1 TEMP              0 ****  ****    0 ROOT
