@<TRIPOS>MOLECULE
W6G
   22    23     1     0     0
SMALL
No Charge or Current Charge


@<TRIPOS>ATOM
      1 C10        -48.2730   -31.3250     3.2730 ca         1 W6G      -0.315500
      2 C13        -49.3110   -33.7590     4.2410 ca         1 W6G      -0.046000
      3 C15        -49.6290   -31.4150     3.6560 ca         1 W6G      -0.011500
      4 C05        -46.9120   -29.4500     5.2010 cc         1 W6G       0.617300
      5 C08        -47.6350   -29.7380     7.4270 cc         1 W6G       0.355300
      6 C11        -47.4410   -32.4610     3.3730 ca         1 W6G      -0.011500
      7 C12        -47.9630   -33.6730     3.8570 ca         1 W6G      -0.126000
      8 C14        -50.1430   -32.6310     4.1400 ca         1 W6G      -0.126000
      9 N04        -46.6600   -29.1790     3.9040 nu         1 W6G      -0.835000
     10 N06        -45.9270   -29.8540     5.9780 nd         1 W6G      -0.375000
     11 N07        -46.3510   -30.0400     7.2820 nd         1 W6G      -0.292000
     12 O01        -48.6570   -28.7750     2.5050 o          1 W6G      -0.517000
     13 O03        -46.6030   -30.0400     1.6300 o          1 W6G      -0.517000
     14 S02        -47.5970   -29.7710     2.6690 sy         1 W6G       1.166600
     15 S09        -48.4370   -29.1900     5.9850 ss         1 W6G      -0.193800
     16 H131       -49.7120   -34.6990     4.6160 ha         1 W6G       0.121000
     17 H151       -50.2870   -30.5500     3.5860 ha         1 W6G       0.137500
     18 H081       -48.1850   -29.8060     8.3570 h5         1 W6G       0.063100
     19 H111       -46.3930   -32.4090     3.0800 ha         1 W6G       0.137500
     20 H121       -47.3200   -34.5470     3.9350 ha         1 W6G       0.123500
     21 H141       -51.1870   -32.6980     4.4370 ha         1 W6G       0.123500
     22 H041       -45.7210   -29.4360     3.6450 hn         1 W6G       0.521000
@<TRIPOS>BOND
     1     1     3 ar  
     2     1     6 ar  
     3     1    14 1   
     4     2     7 ar  
     5     2     8 ar  
     6     2    16 1   
     7     3     8 ar  
     8     3    17 1   
     9     4     9 1   
    10     4    10 2   
    11     4    15 1   
    12     5    11 2   
    13     5    15 1   
    14     5    18 1   
    15     6     7 ar  
    16     6    19 1   
    17     7    20 1   
    18     8    21 1   
    19     9    14 1   
    20     9    22 1   
    21    10    11 1   
    22    12    14 2   
    23    13    14 2   
@<TRIPOS>SUBSTRUCTURE
     1 W6G         1 TEMP              0 ****  ****    0 ROOT
