@<TRIPOS>MOLECULE
W6G
   22    23     1     0     0
SMALL
bcc


@<TRIPOS>ATOM
      1 C10        -48.2550   -31.5180     3.2580 ca         1 W6G      -0.315500
      2 C13        -49.2300   -34.0160     3.8750 ca         1 W6G      -0.064000
      3 C15        -49.4480   -31.6220     3.9610 ca         1 W6G      -0.029500
      4 C05        -46.8870   -29.3920     5.4310 cc         1 W6G       0.617300
      5 C08        -47.7860   -28.7760     7.5130 cc         1 W6G       0.355300
      6 C11        -47.5410   -32.6410     2.8530 ca         1 W6G      -0.029500
      7 C12        -48.0390   -33.8940     3.1690 ca         1 W6G      -0.144000
      8 C14        -49.9310   -32.8850     4.2690 ca         1 W6G      -0.144000
      9 N04        -46.5030   -29.6030     4.1280 nu         1 W6G      -0.779800
     10 N06        -46.1520   -29.7700     6.4270 nd         1 W6G      -0.375000
     11 N07        -46.6700   -29.4070     7.6190 nd         1 W6G      -0.292000
     12 O01        -48.6450   -28.9340     3.0540 o          1 W6G      -0.587800
     13 O03        -46.7910   -29.9910     1.6990 o          1 W6G      -0.587800
     14 S02        -47.5960   -29.9220     2.8980 sy         1 W6G       1.308200
     15 S09        -48.3160   -28.5370     5.8920 ss         1 W6G      -0.193800
     16 H131       -49.6140   -34.9980     4.1150 ha         1 W6G       0.139000
     17 H151       -50.0050   -30.7440     4.2580 ha         1 W6G       0.155500
     18 H081       -48.3620   -28.4300     8.3590 h5         1 W6G       0.063100
     19 H111       -46.6170   -32.5500     2.2990 ha         1 W6G       0.155500
     20 H121       -47.4980   -34.7770     2.8590 ha         1 W6G       0.141500
     21 H141       -50.8600   -32.9820     4.8140 ha         1 W6G       0.141500
     22 H041       -45.5990   -30.0580     4.0280 hn         1 W6G       0.465800
@<TRIPOS>BOND
     1     1     3 ar  
     2     1     6 ar  
     3     1    14 1   
     4     2     7 ar  
     5     2     8 ar  
     6     2    16 1   
     7     3     8 ar  
     8     3    17 1   
     9     4     9 1   
    10     4    10 2   
    11     4    15 1   
    12     5    11 2   
    13     5    15 1   
    14     5    18 1   
    15     6     7 ar  
    16     6    19 1   
    17     7    20 1   
    18     8    21 1   
    19     9    14 1   
    20     9    22 1   
    21    10    11 1   
    22    12    14 2   
    23    13    14 2   
@<TRIPOS>SUBSTRUCTURE
     1 W6G         1 TEMP              0 ****  ****    0 ROOT
