@<TRIPOS>MOLECULE
W6H
   29    29     1     0     0
SMALL
abcg2


@<TRIPOS>ATOM
      1 C7          28.6210    16.1350    38.5220 cc         1 W6H      -0.093800
      2 C8          27.2390    16.0620    38.1570 cc         1 W6H      -0.112000
      3 C9          27.0210    15.2650    37.0810 cd         1 W6H      -0.248000
      4 O1          32.7190    20.3300    43.0940 os         1 W6H      -0.440100
      5 C1          30.7150    18.9360    43.2090 c3         1 W6H      -0.013000
      6 C5          28.4940    17.6840    40.4560 cf         1 W6H      -0.275200
      7 C6          29.1810    16.8920    39.6290 ce         1 W6H      -0.088200
      8 C4          29.1270    18.5630    41.4710 c          1 W6H       0.615300
      9 C3          32.4260    20.7880    44.4130 c3         1 W6H       0.160900
     10 C2          31.9360    19.4610    42.4690 c          1 W6H       0.584100
     11 O2          28.8690    19.7610    41.4580 o          1 W6H      -0.595100
     12 N           29.9640    18.0260    42.3900 n          1 W6H      -0.396800
     13 O           32.2220    19.1170    41.3530 o          1 W6H      -0.431000
     14 C           30.2880    16.6180    42.5170 c3         1 W6H       0.094300
     15 C10         29.4000    15.3740    37.6910 cd         1 W6H      -0.232000
     16 S           28.4820    14.5860    36.4870 ss         1 W6H       0.221000
     17 H1          26.4430    16.5780    38.6740 ha         1 W6H       0.137000
     18 H2          26.0790    15.0380    36.6050 h4         1 W6H       0.152000
     19 H3          30.0900    19.7680    43.5370 h1         1 W6H       0.078200
     20 H4          31.0360    18.4170    44.1150 h1         1 W6H       0.078200
     21 H5          27.4290    17.8460    40.3220 ha         1 W6H       0.200000
     22 H6          30.2560    16.7980    39.7540 ha         1 W6H       0.185000
     23 H7          33.2320    21.4660    44.6810 h1         1 W6H       0.045367
     24 H8          31.4830    21.3330    44.4500 h1         1 W6H       0.045367
     25 H9          32.4050    19.9700    45.1330 h1         1 W6H       0.045367
     26 H10         31.2140    16.3580    42.0000 h1         1 W6H       0.043700
     27 H11         30.4080    16.3760    43.5720 h1         1 W6H       0.043700
     28 H12         29.4860    16.0010    42.1250 h1         1 W6H       0.043700
     29 H13         30.4710    15.2470    37.7370 h4         1 W6H       0.153000
@<TRIPOS>BOND
     1     1     2 1   
     2     1     7 1   
     3     1    15 2   
     4     2     3 2   
     5     2    17 1   
     6     3    16 1   
     7     3    18 1   
     8     4     9 1   
     9     4    10 1   
    10     5    10 1   
    11     5    12 1   
    12     5    19 1   
    13     5    20 1   
    14     6     7 2   
    15     6     8 1   
    16     6    21 1   
    17     7    22 1   
    18     8    11 2   
    19     8    12 1   
    20     9    23 1   
    21     9    24 1   
    22     9    25 1   
    23    10    13 2   
    24    12    14 1   
    25    14    26 1   
    26    14    27 1   
    27    14    28 1   
    28    15    16 1   
    29    15    29 1   
@<TRIPOS>SUBSTRUCTURE
     1 W6H         1 TEMP              0 ****  ****    0 ROOT
