@<TRIPOS>MOLECULE
W6H
   29    29     1     0     0
SMALL
No Charge or Current Charge


@<TRIPOS>ATOM
      1 C7          28.5340    15.9120    38.5020 cc         1 W6H      -0.093800
      2 C8          27.1780    16.0660    38.0980 cc         1 W6H      -0.112000
      3 C9          26.8040    15.2990    37.0260 cd         1 W6H      -0.248000
      4 O1          32.6090    20.8200    43.3140 os         1 W6H      -0.440100
      5 C1          30.9560    18.9550    43.1560 c3         1 W6H      -0.013000
      6 C5          28.6740    17.7760    40.2010 cf         1 W6H      -0.275200
      7 C6          29.1410    16.6280    39.6200 ce         1 W6H      -0.088200
      8 C4          29.2780    18.5750    41.3110 c          1 W6H       0.615300
      9 C3          32.2940    20.8940    44.7200 c3         1 W6H       0.160900
     10 C2          31.9990    19.8970    42.4880 c          1 W6H       0.584100
     11 O2          28.9160    19.7360    41.4400 o          1 W6H      -0.595100
     12 N           30.2340    18.0410    42.2170 n          1 W6H      -0.396800
     13 O           32.2850    19.8300    41.3010 o          1 W6H      -0.431000
     14 C           30.3960    16.5880    42.4500 c3         1 W6H       0.094300
     15 C10         29.1890    15.0000    37.7110 cd         1 W6H      -0.232000
     16 S           28.1530    14.3180    36.4450 ss         1 W6H       0.221000
     17 H1          26.4920    16.7350    38.6100 ha         1 W6H       0.137000
     18 H2          25.8370    15.2410    36.5430 h4         1 W6H       0.152000
     19 H3          30.2160    19.5750    43.6760 h1         1 W6H       0.078200
     20 H4          31.4880    18.3660    43.9130 h1         1 W6H       0.078200
     21 H5          27.7830    18.2330    39.7790 ha         1 W6H       0.200000
     22 H6          30.0940    16.2070    39.9350 ha         1 W6H       0.185000
     23 H7          32.8960    21.6770    45.1990 h1         1 W6H       0.045367
     24 H8          31.2380    21.1470    44.8790 h1         1 W6H       0.045367
     25 H9          32.5160    19.9470    45.2290 h1         1 W6H       0.045367
     26 H10         31.2320    16.2050    41.8530 h1         1 W6H       0.043700
     27 H11         30.6090    16.3970    43.5100 h1         1 W6H       0.043700
     28 H12         29.4740    16.0520    42.1950 h1         1 W6H       0.043700
     29 H13         30.2210    14.6790    37.7820 h4         1 W6H       0.153000
@<TRIPOS>BOND
     1     1     2 1   
     2     1     7 1   
     3     1    15 2   
     4     2     3 2   
     5     2    17 1   
     6     3    16 1   
     7     3    18 1   
     8     4     9 1   
     9     4    10 1   
    10     5    10 1   
    11     5    12 1   
    12     5    19 1   
    13     5    20 1   
    14     6     7 2   
    15     6     8 1   
    16     6    21 1   
    17     7    22 1   
    18     8    11 2   
    19     8    12 1   
    20     9    23 1   
    21     9    24 1   
    22     9    25 1   
    23    10    13 2   
    24    12    14 1   
    25    14    26 1   
    26    14    27 1   
    27    14    28 1   
    28    15    16 1   
    29    15    29 1   
@<TRIPOS>SUBSTRUCTURE
     1 W6H         1 TEMP              0 ****  ****    0 ROOT
