@<TRIPOS>MOLECULE
W6J
   28    29     1     0     0
SMALL
No Charge or Current Charge


@<TRIPOS>ATOM
      1 C10        -38.5220    -1.0040    18.0970 c3         1 W6J       0.144800
      2 N12        -35.4790     0.6900    17.3490 nb         1 W6J      -0.753000
      3 C13        -34.4820     1.4360    17.8700 ca         1 W6J       0.384900
      4 C01        -34.4770     2.8380    17.8320 ca         1 W6J      -0.224000
      5 C02        -35.5490     3.5080    17.2310 ca         1 W6J      -0.037000
      6 C03        -36.5850     2.7320    16.6900 ca         1 W6J      -0.232000
      7 C04        -36.5150     1.3240    16.7660 ca         1 W6J       0.612900
      8 C06        -38.6180     0.9780    15.3970 c3         1 W6J       0.220800
      9 C07        -39.8790     1.3850    16.1930 c3         1 W6J      -0.148400
     10 C08        -40.4730     0.2810    17.1020 c3         1 W6J       0.170800
     11 C11        -37.7230    -0.9100    16.7590 c3         1 W6J       0.191800
     12 N05        -37.5180     0.4740    16.2460 nh         1 W6J      -0.774300
     13 N09        -39.5860     0.0350    18.2590 n7         1 W6J      -0.877400
     14 H101       -38.9570    -2.0110    18.1570 h1         1 W6J       0.056700
     15 H102       -37.8060    -0.9210    18.9260 h1         1 W6J       0.056700
     16 H011       -33.6490     3.3910    18.2670 ha         1 W6J       0.124000
     17 H021       -35.5800     4.5950    17.1870 ha         1 W6J       0.113000
     18 H031       -37.4300     3.2290    16.2300 ha         1 W6J       0.120000
     19 H062       -38.2800     1.8270    14.7880 h1         1 W6J       0.052700
     20 H061       -38.9040     0.2000    14.6760 h1         1 W6J       0.052700
     21 H072       -39.6600     2.2730    16.7970 hc         1 W6J       0.049700
     22 H071       -40.6490     1.6880    15.4730 hc         1 W6J       0.049700
     23 H081       -41.4460     0.6430    17.4640 h1         1 W6J       0.048700
     24 H082       -40.6630    -0.6360    16.5270 h1         1 W6J       0.048700
     25 H112       -38.2800    -1.4870    16.0080 h1         1 W6J       0.057200
     26 H111       -36.7690    -1.4430    16.8730 h1         1 W6J       0.057200
     27 H1         -39.1080     0.9250    18.4410 hn         1 W6J       0.420000
     28 H131       -33.6600     0.8910    18.3330 h4         1 W6J       0.013100
@<TRIPOS>BOND
     1     1    11 1   
     2     1    13 1   
     3     1    14 1   
     4     1    15 1   
     5     2     3 ar  
     6     2     7 ar  
     7     3     4 ar  
     8     3    28 1   
     9     4     5 ar  
    10     4    16 1   
    11     5     6 ar  
    12     5    17 1   
    13     6     7 ar  
    14     6    18 1   
    15     7    12 1   
    16     8     9 1   
    17     8    12 1   
    18     8    19 1   
    19     8    20 1   
    20     9    10 1   
    21     9    21 1   
    22     9    22 1   
    23    10    13 1   
    24    10    23 1   
    25    10    24 1   
    26    11    12 1   
    27    11    25 1   
    28    11    26 1   
    29    13    27 1   
@<TRIPOS>SUBSTRUCTURE
     1 W6J         1 TEMP              0 ****  ****    0 ROOT
