@<TRIPOS>MOLECULE
W6J
   28    29     1     0     0
SMALL
abcg2


@<TRIPOS>ATOM
      1 C10        -38.3670    -0.9970    17.9790 c3         1 W6J       0.144800
      2 N12        -35.7490     0.6990    17.5510 nb         1 W6J      -0.753000
      3 C13        -34.8150     1.4410    18.1330 ca         1 W6J       0.384900
      4 C01        -34.6720     2.8010    17.9420 ca         1 W6J      -0.224000
      5 C02        -35.5780     3.4130    17.0800 ca         1 W6J      -0.037000
      6 C03        -36.5570     2.6670    16.4620 ca         1 W6J      -0.232000
      7 C04        -36.6170     1.2780    16.7170 ca         1 W6J       0.612900
      8 C06        -38.6570     0.9970    15.3780 c3         1 W6J       0.220800
      9 C07        -39.8220     1.4310    16.2610 c3         1 W6J      -0.148400
     10 C08        -40.3010     0.3670    17.2530 c3         1 W6J       0.170800
     11 C11        -37.6980    -0.8970    16.5940 c3         1 W6J       0.191800
     12 N05        -37.5290     0.4600    16.1160 nh         1 W6J      -0.774300
     13 N09        -39.3540     0.0130    18.2970 n7         1 W6J      -0.877400
     14 H101       -38.8220    -1.9910    18.0470 h1         1 W6J       0.056700
     15 H102       -37.6030    -0.9510    18.7540 h1         1 W6J       0.056700
     16 H011       -33.8950     3.3580    18.4470 ha         1 W6J       0.124000
     17 H021       -35.5240     4.4780    16.8900 ha         1 W6J       0.113000
     18 H031       -37.2580     3.1550    15.8010 ha         1 W6J       0.120000
     19 H062       -38.3340     1.8230    14.7450 h1         1 W6J       0.052700
     20 H061       -38.9920     0.2170    14.6910 h1         1 W6J       0.052700
     21 H072       -39.5490     2.3300    16.8230 hc         1 W6J       0.049700
     22 H071       -40.6550     1.7180    15.6140 hc         1 W6J       0.049700
     23 H081       -41.2160     0.7410    17.7220 h1         1 W6J       0.048700
     24 H082       -40.5910    -0.5450    16.7240 h1         1 W6J       0.048700
     25 H112       -38.3110    -1.4120    15.8530 h1         1 W6J       0.057200
     26 H111       -36.7400    -1.4180    16.6190 h1         1 W6J       0.057200
     27 H1         -38.8990     0.8460    18.6460 hn         1 W6J       0.420000
     28 H131       -34.1410     0.9100    18.7990 h4         1 W6J       0.013100
@<TRIPOS>BOND
     1     1    11 1   
     2     1    13 1   
     3     1    14 1   
     4     1    15 1   
     5     2     3 ar  
     6     2     7 ar  
     7     3     4 ar  
     8     3    28 1   
     9     4     5 ar  
    10     4    16 1   
    11     5     6 ar  
    12     5    17 1   
    13     6     7 ar  
    14     6    18 1   
    15     7    12 1   
    16     8     9 1   
    17     8    12 1   
    18     8    19 1   
    19     8    20 1   
    20     9    10 1   
    21     9    21 1   
    22     9    22 1   
    23    10    13 1   
    24    10    23 1   
    25    10    24 1   
    26    11    12 1   
    27    11    25 1   
    28    11    26 1   
    29    13    27 1   
@<TRIPOS>SUBSTRUCTURE
     1 W6J         1 TEMP              0 ****  ****    0 ROOT
