@<TRIPOS>MOLECULE
W6K
   39    41     1     0     0
SMALL
abcg2


@<TRIPOS>ATOM
      1 N1          -5.6380     6.8240   -18.6770 nu         1 W6K      -0.983000
      2 C4          -7.5660     9.3770   -16.8160 ca         1 W6K      -0.110000
      3 C5          -6.9120     8.7470   -17.8630 ca         1 W6K      -0.188000
      4 C6          -6.3650     7.4720   -17.6800 ca         1 W6K       0.318000
      5 C7          -7.2720     6.8560   -14.0070 c3         1 W6K      -0.034800
      6 C8          -5.6890     6.9750   -20.0480 ca         1 W6K       0.383000
      7 C10         -6.8130     7.5990   -22.1010 ca         1 W6K      -0.065000
      8 C13         -4.5820     6.5110   -20.8050 cp         1 W6K      -0.117000
      9 C15         -3.2340     4.5290   -20.0860 ca         1 W6K      -0.076500
     10 C17         -1.2390     4.7840   -18.7580 ca         1 W6K      -0.099000
     11 C20         -5.8930     5.4390   -16.2410 c          1 W6K       0.707600
     12 C1          -6.4890     6.8290   -16.4260 ca         1 W6K      -0.154600
     13 C11         -5.7320     7.1680   -22.8600 ca         1 W6K      -0.191000
     14 C12         -4.6430     6.6240   -22.1900 ca         1 W6K       0.183000
     15 C14         -3.4120     5.9130   -20.1090 cp         1 W6K      -0.031000
     16 C16         -2.1530     3.9670   -19.4160 ca         1 W6K      -0.107000
     17 C18         -1.4120     6.1650   -18.7720 ca         1 W6K      -0.107000
     18 C19         -2.4940     6.7260   -19.4410 ca         1 W6K      -0.076500
     19 C2          -7.1410     7.4830   -15.3710 ca         1 W6K      -0.031300
     20 C3          -7.6750     8.7570   -15.5780 ca         1 W6K      -0.165000
     21 C9          -6.8010     7.5040   -20.7180 ca         1 W6K      -0.197000
     22 O1          -4.6900     5.2890   -16.6050 o          1 W6K      -0.715000
     23 O2          -6.6290     4.5470   -15.7650 o          1 W6K      -0.715000
     24 CL1         -3.2770     6.0880   -23.1580 cl         1 W6K      -0.246000
     25 H1          -4.9660     6.1630   -18.2990 hn         1 W6K       0.562000
     26 H2          -7.9750    10.3700   -16.9630 ha         1 W6K       0.086000
     27 H3          -6.7920     9.2590   -18.8060 ha         1 W6K       0.100000
     28 H4          -6.3330     6.4100   -13.6750 hc         1 W6K       0.038033
     29 H5          -7.5770     7.6060   -13.2760 hc         1 W6K       0.038033
     30 H6          -8.0150     6.0570   -14.0110 hc         1 W6K       0.038033
     31 H7          -7.6830     8.0090   -22.5980 ha         1 W6K       0.100000
     32 H10         -5.7320     7.2440   -23.9370 ha         1 W6K       0.114000
     33 H11         -2.0270     2.8920   -19.4050 ha         1 W6K       0.102000
     34 H12         -0.7060     6.8060   -18.2600 ha         1 W6K       0.102000
     35 H13         -2.6330     7.8000   -19.4460 ha         1 W6K       0.111000
     36 H14         -8.1710     9.2630   -14.7590 ha         1 W6K       0.089000
     37 H15         -7.6680     7.8150   -20.1560 ha         1 W6K       0.128000
     38 H8          -3.9480     3.8940   -20.5950 ha         1 W6K       0.111000
     39 H9          -0.3990     4.3470   -18.2340 ha         1 W6K       0.098000
@<TRIPOS>BOND
     1     1     4 1   
     2     1     6 1   
     3     1    25 1   
     4     2     3 ar  
     5     2    20 ar  
     6     2    26 1   
     7     3     4 ar  
     8     3    27 1   
     9     4    12 ar  
    10     5    19 1   
    11     5    28 1   
    12     5    29 1   
    13     5    30 1   
    14     6     8 ar  
    15     6    21 ar  
    16     7    13 ar  
    17     7    21 ar  
    18     7    31 1   
    19     8    14 ar  
    20     8    15 1   
    21     9    15 ar  
    22     9    16 ar  
    23     9    38 1   
    24    10    16 ar  
    25    10    17 ar  
    26    10    39 1   
    27    11    12 1   
    28    11    22 1   
    29    11    23 1   
    30    12    19 ar  
    31    13    14 ar  
    32    13    32 1   
    33    14    24 1   
    34    15    18 ar  
    35    16    33 1   
    36    17    18 ar  
    37    17    34 1   
    38    18    35 1   
    39    19    20 ar  
    40    20    36 1   
    41    21    37 1   
@<TRIPOS>SUBSTRUCTURE
     1 W6K         1 TEMP              0 ****  ****    0 ROOT
