@<TRIPOS>MOLECULE
W6K
   39    41     1     0     0
SMALL
No Charge or Current Charge


@<TRIPOS>ATOM
      1 N1          -5.6940     6.8570   -18.6740 nu         1 W6K      -0.983000
      2 C4          -7.4800     9.4870   -16.7630 ca         1 W6K      -0.110000
      3 C5          -6.8320     8.8180   -17.8100 ca         1 W6K      -0.188000
      4 C6          -6.3670     7.5020   -17.6370 ca         1 W6K       0.318000
      5 C7          -7.3390     6.9060   -13.9470 c3         1 W6K      -0.034800
      6 C8          -5.7020     6.9470   -20.0670 ca         1 W6K       0.383000
      7 C10         -6.8710     7.5250   -22.1310 ca         1 W6K      -0.065000
      8 C13         -4.5960     6.4520   -20.8100 cp         1 W6K      -0.117000
      9 C15         -3.0350     4.5210   -20.3040 ca         1 W6K      -0.076500
     10 C17         -1.1290     4.7890   -18.8150 ca         1 W6K      -0.099000
     11 C20         -6.0160     5.4470   -16.2250 c          1 W6K       0.707600
     12 C1          -6.5260     6.8550   -16.3920 ca         1 W6K      -0.154600
     13 C11         -5.7780     7.0640   -22.8750 ca         1 W6K      -0.191000
     14 C12         -4.6540     6.5290   -22.2270 ca         1 W6K       0.183000
     15 C14         -3.3970     5.8780   -20.1230 cp         1 W6K      -0.031000
     16 C16         -1.9100     3.9810   -19.6570 ca         1 W6K      -0.107000
     17 C18         -1.4740     6.1370   -18.6200 ca         1 W6K      -0.107000
     18 C19         -2.5990     6.6760   -19.2680 ca         1 W6K      -0.076500
     19 C2          -7.1700     7.5400   -15.3250 ca         1 W6K      -0.031300
     20 C3          -7.6480     8.8480   -15.5280 ca         1 W6K      -0.165000
     21 C9          -6.8310     7.4600   -20.7310 ca         1 W6K      -0.197000
     22 O1          -4.8620     5.2100   -16.5570 o          1 W6K      -0.715000
     23 O2          -6.7920     4.5860   -15.8370 o          1 W6K      -0.715000
     24 Cl1         -3.3110     5.9880   -23.2350 cl         1 W6K      -0.246000
     25 H1          -5.0470     6.1440   -18.3140 hn         1 W6K       0.562000
     26 H2          -7.8380    10.5040   -16.9050 ha         1 W6K       0.086000
     27 H3          -6.6750     9.3370   -18.7500 ha         1 W6K       0.100000
     28 H4          -6.4190     6.4090   -13.6180 hc         1 W6K       0.038033
     29 H5          -7.5890     7.6550   -13.1850 hc         1 W6K       0.038033
     30 H6          -8.1450     6.1630   -13.9520 hc         1 W6K       0.038033
     31 H7          -7.7480     7.9250   -22.6350 ha         1 W6K       0.100000
     32 H10         -5.8020     7.1160   -23.9610 ha         1 W6K       0.114000
     33 H11         -1.6460     2.9370   -19.8080 ha         1 W6K       0.102000
     34 H12         -0.8700     6.7640   -17.9680 ha         1 W6K       0.102000
     35 H13         -2.8560     7.7210   -19.1120 ha         1 W6K       0.111000
     36 H14         -8.1420     9.3810   -14.7190 ha         1 W6K       0.089000
     37 H15         -7.6940     7.7920   -20.1630 ha         1 W6K       0.128000
     38 H8          -3.6360     3.8860   -20.9510 ha         1 W6K       0.111000
     39 H9          -0.2590     4.3720   -18.3140 ha         1 W6K       0.098000
@<TRIPOS>BOND
     1     1     4 1   
     2     1     6 1   
     3     1    25 1   
     4     2     3 ar  
     5     2    20 ar  
     6     2    26 1   
     7     3     4 ar  
     8     3    27 1   
     9     4    12 ar  
    10     5    19 1   
    11     5    28 1   
    12     5    29 1   
    13     5    30 1   
    14     6     8 ar  
    15     6    21 ar  
    16     7    13 ar  
    17     7    21 ar  
    18     7    31 1   
    19     8    14 ar  
    20     8    15 1   
    21     9    15 ar  
    22     9    16 ar  
    23     9    38 1   
    24    10    16 ar  
    25    10    17 ar  
    26    10    39 1   
    27    11    12 1   
    28    11    22 1   
    29    11    23 1   
    30    12    19 ar  
    31    13    14 ar  
    32    13    32 1   
    33    14    24 1   
    34    15    18 ar  
    35    16    33 1   
    36    17    18 ar  
    37    17    34 1   
    38    18    35 1   
    39    19    20 ar  
    40    20    36 1   
    41    21    37 1   
@<TRIPOS>SUBSTRUCTURE
     1 W6K         1 TEMP              0 ****  ****    0 ROOT
