@<TRIPOS>MOLECULE
W6L
   21    21     1     0     0
SMALL
abcg2


@<TRIPOS>ATOM
      1 N1          -2.3710    15.5910   -33.9620 n8         1 W6L      -0.992200
      2 C7          -2.8860    13.1720   -34.3360 c3         1 W6L      -0.058300
      3 C8          -3.0020    12.1120   -35.3250 c1         1 W6L       0.303900
      4 C1           0.2130    14.4480   -37.7050 ca         1 W6L      -0.107000
      5 C5           1.2780    13.8840   -35.6240 ca         1 W6L      -0.107000
      6 C6          -2.4210    14.5220   -34.9590 c3         1 W6L       0.219800
      7 C4           0.0620    14.0200   -34.9650 ca         1 W6L      -0.095000
      8 C3          -1.0910    14.3760   -35.6670 ca         1 W6L      -0.080300
      9 C2          -1.0020    14.5870   -37.0410 ca         1 W6L      -0.095000
     10 N           -3.0850    11.2970   -36.1350 n1         1 W6L      -0.456000
     11 C            1.3570    14.0970   -36.9980 ca         1 W6L      -0.103000
     12 H9          -3.2790    15.6940   -33.5190 hn         1 W6L       0.400500
     13 H10         -1.7120    15.3600   -33.2250 hn         1 W6L       0.400500
     14 H6          -2.1800    12.8520   -33.5660 hc         1 W6L       0.068700
     15 H7          -3.8590    13.3100   -33.8600 hc         1 W6L       0.068700
     16 H2           0.2640    14.6130   -38.7740 ha         1 W6L       0.114000
     17 H5           2.1640    13.6080   -35.0660 ha         1 W6L       0.114000
     18 H           -3.1680    14.8080   -35.7010 h1         1 W6L       0.072700
     19 H4           0.0160    13.8430   -33.8970 ha         1 W6L       0.108500
     20 H3          -1.8920    14.8600   -37.5960 ha         1 W6L       0.108500
     21 H1           2.3040    13.9880   -37.5110 ha         1 W6L       0.114000
@<TRIPOS>BOND
     1     1     6 1   
     2     1    12 1   
     3     1    13 1   
     4     2     3 1   
     5     2     6 1   
     6     2    14 1   
     7     2    15 1   
     8     3    10 3   
     9     4     9 ar  
    10     4    11 ar  
    11     4    16 1   
    12     5     7 ar  
    13     5    11 ar  
    14     5    17 1   
    15     6     8 1   
    16     6    18 1   
    17     7     8 ar  
    18     7    19 1   
    19     8     9 ar  
    20     9    20 1   
    21    11    21 1   
@<TRIPOS>SUBSTRUCTURE
     1 W6L         1 TEMP              0 ****  ****    0 ROOT
