@<TRIPOS>MOLECULE
W6L
   21    21     1     0     0
SMALL
No Charge or Current Charge


@<TRIPOS>ATOM
      1 N1          -2.4200    15.6130   -34.0250 n8         1 W6L      -0.992200
      2 C7          -2.9040    13.1860   -34.2950 c3         1 W6L      -0.058300
      3 C8          -3.0380    12.0670   -35.2340 c1         1 W6L       0.303900
      4 C1           0.2580    14.5310   -37.7230 ca         1 W6L      -0.107000
      5 C5           1.3010    13.8380   -35.6390 ca         1 W6L      -0.107000
      6 C6          -2.4460    14.4930   -34.9880 c3         1 W6L       0.219800
      7 C4           0.0650    13.9590   -34.9800 ca         1 W6L      -0.095000
      8 C3          -1.0880    14.3650   -35.6880 ca         1 W6L      -0.080300
      9 C2          -0.9780    14.6520   -37.0650 ca         1 W6L      -0.095000
     10 N           -3.1700    11.1700   -35.9650 n1         1 W6L      -0.456000
     11 C            1.3980    14.1230   -37.0110 ca         1 W6L      -0.103000
     12 H9          -3.3030    15.6320   -33.5030 hn         1 W6L       0.400500
     13 H10         -1.7130    15.4180   -33.3080 hn         1 W6L       0.400500
     14 H6          -2.1990    12.9000   -33.5070 hc         1 W6L       0.068700
     15 H7          -3.8760    13.3450   -33.8150 hc         1 W6L       0.068700
     16 H2           0.3320    14.7530   -38.7850 ha         1 W6L       0.114000
     17 H5           2.1830    13.5240   -35.0860 ha         1 W6L       0.114000
     18 H           -3.2030    14.7400   -35.7490 h1         1 W6L       0.072700
     19 H4           0.0080    13.7370   -33.9170 ha         1 W6L       0.108500
     20 H3          -1.8530    14.9690   -37.6290 ha         1 W6L       0.108500
     21 H1           2.3540    14.0290   -37.5210 ha         1 W6L       0.114000
@<TRIPOS>BOND
     1     1     6 1   
     2     1    12 1   
     3     1    13 1   
     4     2     3 1   
     5     2     6 1   
     6     2    14 1   
     7     2    15 1   
     8     3    10 3   
     9     4     9 ar  
    10     4    11 ar  
    11     4    16 1   
    12     5     7 ar  
    13     5    11 ar  
    14     5    17 1   
    15     6     8 1   
    16     6    18 1   
    17     7     8 ar  
    18     7    19 1   
    19     8     9 ar  
    20     9    20 1   
    21    11    21 1   
@<TRIPOS>SUBSTRUCTURE
     1 W6L         1 TEMP              0 ****  ****    0 ROOT
