@<TRIPOS>MOLECULE
W6M
   29    30     1     0     0
SMALL
No Charge or Current Charge


@<TRIPOS>ATOM
      1 C10        -49.5520   -29.5400     5.8230 ca         1 W6M      -0.188600
      2 C13        -46.7740   -29.3540     5.3180 ca         1 W6M      -0.063000
      3 C15        -47.1910   -28.3570     3.0100 c          1 W6M       0.715600
      4 C02        -54.1770   -27.1010     8.6410 cc         1 W6M       0.560300
      5 C05        -53.5690   -28.9460     7.9280 cd         1 W6M       0.478300
      6 C06        -52.8670   -30.2680     7.6820 c3         1 W6M       0.082700
      7 C08        -51.0470   -29.6240     6.0550 c          1 W6M       0.624700
      8 C11        -48.6140   -29.9680     6.7920 ca         1 W6M      -0.114000
      9 C12        -47.2380   -29.8730     6.5360 ca         1 W6M      -0.156000
     10 C14        -47.6860   -28.9200     4.3310 ca         1 W6M      -0.147600
     11 C18        -49.0720   -29.0190     4.5980 ca         1 W6M      -0.030000
     12 N03        -55.0590   -27.3220     7.6820 nd         1 W6M      -0.396300
     13 N07        -51.4560   -30.1390     7.2640 ns         1 W6M      -0.510900
     14 N19        -53.2360   -28.0630     8.8490 nc         1 W6M      -0.706000
     15 O04        -54.6540   -28.5830     7.1870 os         1 W6M      -0.095700
     16 O09        -51.8620   -29.2560     5.2200 o          1 W6M      -0.601100
     17 O16        -45.9850   -28.2870     2.8190 o          1 W6M      -0.714000
     18 O17        -48.0150   -27.9950     2.1830 o          1 W6M      -0.714000
     19 H131       -45.7010   -29.2920     5.1440 ha         1 W6M       0.129000
     20 H011       -54.9770   -25.1800     9.1890 hc         1 W6M       0.060033
     21 H012       -54.3290   -26.1230    10.5440 hc         1 W6M       0.060033
     22 H013       -53.2230   -25.3360     9.4000 hc         1 W6M       0.060033
     23 H061       -53.4160   -30.8210     6.9090 h1         1 W6M       0.069700
     24 H062       -52.9080   -30.8580     8.6050 h1         1 W6M       0.069700
     25 H111       -48.9320   -30.3750     7.7480 ha         1 W6M       0.085000
     26 H121       -46.5250   -30.2040     7.2880 ha         1 W6M       0.089000
     27 H181       -49.7850   -28.6870     3.8450 ha         1 W6M       0.148000
     28 H071       -50.7280   -30.4100     7.9120 hn         1 W6M       0.327500
     29 C01        -54.1780   -25.8660     9.4900 c3         1 W6M      -0.123400
@<TRIPOS>BOND
     1     1     7 1   
     2     1     8 ar  
     3     1    11 ar  
     4     2     9 ar  
     5     2    10 ar  
     6     2    19 1   
     7     3    10 1   
     8     3    17 1   
     9     3    18 1   
    10     4    12 2   
    11     4    14 1   
    12     4    29 1   
    13     5     6 1   
    14     5    14 2   
    15     5    15 1   
    16     6    13 1   
    17     6    23 1   
    18     6    24 1   
    19     7    13 1   
    20     7    16 2   
    21     8     9 ar  
    22     8    25 1   
    23     9    26 1   
    24    10    11 ar  
    25    11    27 1   
    26    12    15 1   
    27    13    28 1   
    28    20    29 1   
    29    21    29 1   
    30    22    29 1   
@<TRIPOS>SUBSTRUCTURE
     1 W6M         1 TEMP              0 ****  ****    0 ROOT
