@<TRIPOS>MOLECULE
W6M
   29    30     1     0     0
SMALL
bcc


@<TRIPOS>ATOM
      1 C10        -49.6230   -29.3350     5.8920 ca         1 W6M      -0.188600
      2 C13        -46.8780   -29.1490     5.5190 ca         1 W6M      -0.081000
      3 C15        -47.1600   -28.7710     3.0190 c          1 W6M       0.926200
      4 C02        -53.9930   -27.2530     8.7360 cc         1 W6M       0.560300
      5 C05        -53.5600   -29.0510     7.8000 cd         1 W6M       0.522700
      6 C06        -52.9870   -30.3150     7.2470 c3         1 W6M       0.082700
      7 C08        -51.1040   -29.3990     6.0390 c          1 W6M       0.691700
      8 C11        -48.7620   -29.4620     6.9810 ca         1 W6M      -0.132000
      9 C12        -47.3920   -29.3650     6.7890 ca         1 W6M      -0.174000
     10 C14        -47.7240   -29.0140     4.4200 ca         1 W6M      -0.147600
     11 C18        -49.0950   -29.0990     4.6260 ca         1 W6M      -0.048000
     12 N03        -55.1400   -27.6430     8.2720 nd         1 W6M      -0.396300
     13 N07        -51.5780   -30.2030     7.0120 ns         1 W6M      -0.577900
     14 N19        -52.9680   -28.1170     8.4600 nc         1 W6M      -0.706000
     15 O04        -54.8550   -28.8330     7.6480 os         1 W6M      -0.140100
     16 O09        -51.8560   -28.7640     5.3140 o          1 W6M      -0.601100
     17 O16        -45.9210   -28.7020     2.9280 o          1 W6M      -0.819300
     18 O17        -47.9940   -28.6680     2.0990 o          1 W6M      -0.819300
     19 H131       -45.8080   -29.0800     5.3750 ha         1 W6M       0.147000
     20 H011       -54.7560   -25.4610     9.5960 hc         1 W6M       0.060033
     21 H012       -53.4160   -26.2010    10.4850 hc         1 W6M       0.060033
     22 H013       -53.1000   -25.3460     8.9810 hc         1 W6M       0.060033
     23 H061       -53.5290   -30.5930     6.3410 h1         1 W6M       0.069700
     24 H062       -53.1500   -31.1160     7.9710 h1         1 W6M       0.069700
     25 H111       -49.1460   -29.6070     7.9840 ha         1 W6M       0.103000
     26 H121       -46.7250   -29.4530     7.6370 ha         1 W6M       0.107000
     27 H181       -49.7620   -28.9890     3.7810 ha         1 W6M       0.166000
     28 H071       -50.9590   -30.7880     7.5470 hn         1 W6M       0.327500
     29 C01        -53.8130   -25.9920     9.4920 c3         1 W6M      -0.123400
@<TRIPOS>BOND
     1     1     7 1   
     2     1     8 ar  
     3     1    11 ar  
     4     2     9 ar  
     5     2    10 ar  
     6     2    19 1   
     7     3    10 1   
     8     3    17 1   
     9     3    18 1   
    10     4    12 2   
    11     4    14 1   
    12     4    29 1   
    13     5     6 1   
    14     5    14 2   
    15     5    15 1   
    16     6    13 1   
    17     6    23 1   
    18     6    24 1   
    19     7    13 1   
    20     7    16 2   
    21     8     9 ar  
    22     8    25 1   
    23     9    26 1   
    24    10    11 ar  
    25    11    27 1   
    26    12    15 1   
    27    13    28 1   
    28    20    29 1   
    29    21    29 1   
    30    22    29 1   
@<TRIPOS>SUBSTRUCTURE
     1 W6M         1 TEMP              0 ****  ****    0 ROOT
