@<TRIPOS>MOLECULE
W6O
   54    57     1     0     0
SMALL
No Charge or Current Charge


@<TRIPOS>ATOM
      1 N1           8.1560    18.4840    38.9470 n3         1 W6O      -0.715500
      2 C4          11.3550    19.0710    38.1570 ca         1 W6O      -0.013500
      3 C5          12.5000    19.8600    38.3630 ca         1 W6O      -0.134000
      4 C6          13.1460    19.8660    39.6130 ca         1 W6O      -0.019300
      5 C7          14.3820    20.7250    39.8330 c3         1 W6O      -0.058800
      6 C8          12.6320    19.0790    40.6600 ca         1 W6O      -0.134000
      7 C10          6.7440    18.0820    38.8650 c5         1 W6O       0.194300
      8 C13          7.3090    20.9130    37.2990 c5         1 W6O      -0.155700
      9 C15          5.8890    23.8190    35.2480 c3         1 W6O       0.150300
     10 C17          3.3290    23.7940    35.1870 ca         1 W6O       0.127000
     11 C20          3.2300    26.2960    36.4650 ca         1 W6O      -0.099000
     12 C21          4.4720    25.7010    36.1820 ca         1 W6O      -0.082000
     13 C22          7.2460    21.5900    38.7040 c5         1 W6O      -0.059900
     14 C1           6.8960    20.4000    39.6600 c5         1 W6O      -0.068700
     15 C2           8.1880    19.5620    39.9560 c5         1 W6O       0.194300
     16 S1           9.3630    17.2930    38.9400 sy         1 W6O       1.156600
     17 C3          10.8480    18.2790    39.2060 ca         1 W6O      -0.314500
     18 C9          11.4880    18.2880    40.4620 ca         1 W6O      -0.013500
     19 O1           9.1240    16.4260    40.1000 o          1 W6O      -0.531500
     20 O2           9.4100    16.7760    37.5670 o          1 W6O      -0.531500
     21 C11          5.9920    19.4490    38.8070 c5         1 W6O      -0.068700
     22 C12          6.0320    20.0120    37.3380 c5         1 W6O      -0.059900
     23 C14          7.2850    21.9290    36.1240 c          1 W6O       0.604100
     24 N2           6.2070    22.7780    36.2200 ns         1 W6O      -0.515900
     25 C16          4.5320    24.4480    35.5390 ca         1 W6O      -0.084300
     26 C18          2.0900    24.3920    35.4720 ca         1 W6O      -0.095000
     27 C19          2.0410    25.6410    36.1080 ca         1 W6O       0.124000
     28 Cl2          0.4880    26.3860    36.4630 cl         1 W6O      -0.193000
     29 O3           8.1060    22.0040    35.2220 o          1 W6O      -0.579100
     30 H1          10.8610    19.0830    37.1860 ha         1 W6O       0.134000
     31 H2          12.8830    20.4700    37.5480 ha         1 W6O       0.118000
     32 H3          14.1040    21.7230    40.1900 hc         1 W6O       0.049700
     33 H4          15.0520    20.2770    40.5770 hc         1 W6O       0.049700
     34 H5          14.9550    20.8470    38.9060 hc         1 W6O       0.049700
     35 H6          13.1190    19.0810    41.6320 ha         1 W6O       0.118000
     36 H7           6.5350    17.4520    37.9900 h1         1 W6O       0.059700
     37 H8           6.4480    17.5150    39.7590 h1         1 W6O       0.059700
     38 H9           8.2180    20.3170    37.1750 hc         1 W6O       0.105700
     39 H10          5.8940    23.3880    34.2380 h1         1 W6O       0.070700
     40 H11          6.6730    24.5870    35.2830 h1         1 W6O       0.070700
     41 H12          3.1890    27.2630    36.9600 ha         1 W6O       0.133000
     42 H13          5.3880    26.2160    36.4650 ha         1 W6O       0.122000
     43 H14          8.1850    22.0910    38.9700 hc         1 W6O       0.049950
     44 H15          6.4610    22.3520    38.7690 hc         1 W6O       0.049950
     45 H16          6.4180    20.7400    40.5860 hc         1 W6O       0.061200
     46 H17          8.1410    19.1390    40.9690 h1         1 W6O       0.059700
     47 H18          9.1010    20.1700    39.8990 h1         1 W6O       0.059700
     48 H19         11.1030    17.6900    41.2870 ha         1 W6O       0.134000
     49 H20          4.9670    19.3670    39.1850 hc         1 W6O       0.061200
     50 H21          5.1190    20.5880    37.1470 hc         1 W6O       0.049950
     51 H22          6.0590    19.2260    36.5740 hc         1 W6O       0.049950
     52 H23          5.5810    22.6390    37.0030 hn         1 W6O       0.314500
     53 H24          1.1680    23.8860    35.2000 ha         1 W6O       0.144000
     54 Cl1          3.3420    22.2170    34.3950 cl         1 W6O      -0.200000
@<TRIPOS>BOND
     1     1     7 1   
     2     1    15 1   
     3     1    16 1   
     4     2     3 ar  
     5     2    17 ar  
     6     2    30 1   
     7     3     4 ar  
     8     3    31 1   
     9     4     5 1   
    10     4     6 ar  
    11     5    32 1   
    12     5    33 1   
    13     5    34 1   
    14     6    18 ar  
    15     6    35 1   
    16     7    21 1   
    17     7    36 1   
    18     7    37 1   
    19     8    13 1   
    20     8    22 1   
    21     8    23 1   
    22     8    38 1   
    23     9    24 1   
    24     9    25 1   
    25     9    39 1   
    26     9    40 1   
    27    10    25 ar  
    28    10    26 ar  
    29    10    54 1   
    30    11    12 ar  
    31    11    27 ar  
    32    11    41 1   
    33    12    25 ar  
    34    12    42 1   
    35    13    14 1   
    36    13    43 1   
    37    13    44 1   
    38    14    15 1   
    39    14    21 1   
    40    14    45 1   
    41    15    46 1   
    42    15    47 1   
    43    16    17 1   
    44    16    19 2   
    45    16    20 2   
    46    17    18 ar  
    47    18    48 1   
    48    21    22 1   
    49    21    49 1   
    50    22    50 1   
    51    22    51 1   
    52    23    24 1   
    53    23    29 2   
    54    24    52 1   
    55    26    27 ar  
    56    26    53 1   
    57    27    28 1   
@<TRIPOS>SUBSTRUCTURE
     1 W6O         1 TEMP              0 ****  ****    0 ROOT
