@<TRIPOS>MOLECULE
W6O
   54    57     1     0     0
SMALL
abcg2


@<TRIPOS>ATOM
      1 N1           9.0170    19.7090    38.1390 n3         1 W6O      -0.715500
      2 C4          12.2410    18.3870    38.7960 ca         1 W6O      -0.013500
      3 C5          13.2320    18.3080    39.7610 ca         1 W6O      -0.134000
      4 C6          12.9450    17.8860    41.0580 ca         1 W6O      -0.019300
      5 C7          14.0130    17.8420    42.1070 c3         1 W6O      -0.058800
      6 C8          11.6330    17.5270    41.3630 ca         1 W6O      -0.134000
      7 C10          8.2610    20.0090    39.3540 c5         1 W6O       0.194300
      8 C13          7.1010    21.9590    36.8540 c5         1 W6O      -0.155700
      9 C15          4.6830    24.5490    35.4980 c3         1 W6O       0.150300
     10 C17          2.2690    24.7270    34.7810 ca         1 W6O       0.127000
     11 C20          1.4790    22.7200    36.4970 ca         1 W6O      -0.099000
     12 C21          2.8060    23.1150    36.4360 ca         1 W6O      -0.082000
     13 C22          8.3480    22.8010    37.1370 c5         1 W6O      -0.059900
     14 C1           9.0210    22.0690    38.2970 c5         1 W6O      -0.068700
     15 C2           9.8700    20.8660    37.8550 c5         1 W6O       0.194300
     16 S1           9.6470    18.2010    37.9300 sy         1 W6O       1.156600
     17 C3          10.9400    18.0340    39.1270 ca         1 W6O      -0.314500
     18 C9          10.6300    17.5970    40.4110 ca         1 W6O      -0.013500
     19 O1           8.5970    17.2530    38.2640 o          1 W6O      -0.531500
     20 O2          10.2420    18.1800    36.6040 o          1 W6O      -0.531500
     21 C11          7.8570    21.4610    39.1290 c5         1 W6O      -0.068700
     22 C12          6.5910    21.6420    38.2670 c5         1 W6O      -0.059900
     23 C14          6.1030    22.6030    35.9140 c          1 W6O       0.604100
     24 N2           5.5800    23.7810    36.3160 ns         1 W6O      -0.515900
     25 C16          3.2370    24.1180    35.5770 ca         1 W6O      -0.084300
     26 C18          0.9350    24.3550    34.8140 ca         1 W6O      -0.095000
     27 C19          0.5530    23.3440    35.6790 ca         1 W6O       0.124000
     28 CL2         -1.1070    22.8590    35.7300 cl         1 W6O      -0.193000
     29 O3           5.7990    22.0990    34.8430 o          1 W6O      -0.579100
     30 H1          12.4910    18.7120    37.7950 ha         1 W6O       0.134000
     31 H2          14.2480    18.5770    39.4980 ha         1 W6O       0.118000
     32 H3          14.0270    18.7730    42.6770 hc         1 W6O       0.049700
     33 H4          13.8440    17.0330    42.8160 hc         1 W6O       0.049700
     34 H5          15.0020    17.7140    41.6680 hc         1 W6O       0.049700
     35 H6          11.3900    17.1830    42.3610 ha         1 W6O       0.118000
     36 H7           7.4110    19.3400    39.4660 h1         1 W6O       0.059700
     37 H8           8.8910    19.9270    40.2500 h1         1 W6O       0.059700
     38 H9           7.4060    21.0290    36.3700 hc         1 W6O       0.105700
     39 H10          5.0160    24.5070    34.4590 h1         1 W6O       0.070700
     40 H11          4.7660    25.5940    35.8030 h1         1 W6O       0.070700
     41 H12          1.1760    21.9340    37.1750 ha         1 W6O       0.133000
     42 H13          3.5230    22.6250    37.0830 ha         1 W6O       0.122000
     43 H14          8.9990    22.9080    36.2680 hc         1 W6O       0.049950
     44 H15          8.0670    23.8070    37.4590 hc         1 W6O       0.049950
     45 H16          9.6370    22.7500    38.8840 hc         1 W6O       0.061200
     46 H17         10.7990    20.8290    38.4370 h1         1 W6O       0.059700
     47 H18         10.1310    20.9010    36.7980 h1         1 W6O       0.059700
     48 H19          9.6230    17.3010    40.6720 ha         1 W6O       0.134000
     49 H20          7.7370    21.9600    40.0910 hc         1 W6O       0.061200
     50 H21          6.0080    22.4770    38.6610 hc         1 W6O       0.049950
     51 H22          5.9430    20.7640    38.2880 hc         1 W6O       0.049950
     52 H23          5.8440    24.1690    37.2070 hn         1 W6O       0.314500
     53 H24          0.2120    24.8470    34.1770 ha         1 W6O       0.144000
     54 CL1          2.7290    26.0030    33.7010 cl         1 W6O      -0.200000
@<TRIPOS>BOND
     1     1     7 1   
     2     1    15 1   
     3     1    16 1   
     4     2     3 ar  
     5     2    17 ar  
     6     2    30 1   
     7     3     4 ar  
     8     3    31 1   
     9     4     5 1   
    10     4     6 ar  
    11     5    32 1   
    12     5    33 1   
    13     5    34 1   
    14     6    18 ar  
    15     6    35 1   
    16     7    21 1   
    17     7    36 1   
    18     7    37 1   
    19     8    13 1   
    20     8    22 1   
    21     8    23 1   
    22     8    38 1   
    23     9    24 1   
    24     9    25 1   
    25     9    39 1   
    26     9    40 1   
    27    10    25 ar  
    28    10    26 ar  
    29    10    54 1   
    30    11    12 ar  
    31    11    27 ar  
    32    11    41 1   
    33    12    25 ar  
    34    12    42 1   
    35    13    14 1   
    36    13    43 1   
    37    13    44 1   
    38    14    15 1   
    39    14    21 1   
    40    14    45 1   
    41    15    46 1   
    42    15    47 1   
    43    16    17 1   
    44    16    19 2   
    45    16    20 2   
    46    17    18 ar  
    47    18    48 1   
    48    21    22 1   
    49    21    49 1   
    50    22    50 1   
    51    22    51 1   
    52    23    24 1   
    53    23    29 2   
    54    24    52 1   
    55    26    27 ar  
    56    26    53 1   
    57    27    28 1   
@<TRIPOS>SUBSTRUCTURE
     1 W6O         1 TEMP              0 ****  ****    0 ROOT
