@<TRIPOS>MOLECULE
W6P
   17    18     1     0     0
SMALL
No Charge or Current Charge


@<TRIPOS>ATOM
      1 C02        -45.7580   -36.1250    -0.7660 c          1 W6P       0.564000
      2 C03        -46.1350   -35.0490    -1.8360 c5         1 W6P      -0.118100
      3 C04        -44.9180   -35.0320    -2.7580 ca         1 W6P      -0.144300
      4 C05        -44.6730   -34.2630    -3.9040 ca         1 W6P      -0.057000
      5 C06        -43.4460   -34.4460    -4.5800 ca         1 W6P      -0.141000
      6 C07        -42.4950   -35.3830    -4.1090 ca         1 W6P      -0.076000
      7 C08        -42.7610   -36.1480    -2.9530 ca         1 W6P      -0.145000
      8 C09        -43.9850   -35.9400    -2.3090 ca         1 W6P      -0.030000
      9 N10        -44.5060   -36.5420    -1.1690 ns         1 W6P      -0.149000
     10 O01        -46.3870   -36.5280     0.2050 o          1 W6P      -0.528000
     11 H032       -46.3290   -34.0980    -1.3310 hc         1 W6P       0.090200
     12 H031       -47.0660   -35.3480    -2.3280 hc         1 W6P       0.090200
     13 H051       -45.4070   -33.5440    -4.2630 ha         1 W6P       0.118000
     14 H061       -43.2310   -33.8620    -5.4720 ha         1 W6P       0.117000
     15 H071       -41.5540   -35.5140    -4.6400 ha         1 W6P       0.115000
     16 H081       -42.0410   -36.8710    -2.5780 ha         1 W6P       0.122000
     17 H101       -43.9920   -37.2500    -0.6610 hn         1 W6P       0.172000
@<TRIPOS>BOND
     1     1     2 1   
     2     1     9 1   
     3     1    10 2   
     4     2     3 1   
     5     2    11 1   
     6     2    12 1   
     7     3     4 ar  
     8     3     8 ar  
     9     4     5 ar  
    10     4    13 1   
    11     5     6 ar  
    12     5    14 1   
    13     6     7 ar  
    14     6    15 1   
    15     7     8 ar  
    16     7    16 1   
    17     8     9 1   
    18     9    17 1   
@<TRIPOS>SUBSTRUCTURE
     1 W6P         1 TEMP              0 ****  ****    0 ROOT
