@<TRIPOS>MOLECULE
W6P
   17    18     1     0     0
SMALL
bcc


@<TRIPOS>ATOM
      1 C02        -45.7190   -36.1100    -0.8140 c          1 W6P       0.706500
      2 C03        -46.1110   -35.0590    -1.8410 c5         1 W6P      -0.118100
      3 C04        -44.9350   -35.0210    -2.7640 ca         1 W6P      -0.144300
      4 C05        -44.6740   -34.2740    -3.8940 ca         1 W6P      -0.075000
      5 C06        -43.4600   -34.4560    -4.5580 ca         1 W6P      -0.159000
      6 C07        -42.5330   -35.3760    -4.0870 ca         1 W6P      -0.094000
      7 C08        -42.7850   -36.1380    -2.9480 ca         1 W6P      -0.163000
      8 C09        -43.9930   -35.9420    -2.3050 ca         1 W6P       0.062600
      9 N10        -44.4830   -36.5640    -1.1630 ns         1 W6P      -0.475100
     10 O01        -46.3690   -36.4860     0.1400 o          1 W6P      -0.603500
     11 H032       -46.2990   -34.1050    -1.3420 hc         1 W6P       0.090200
     12 H031       -47.0430   -35.3480    -2.3320 hc         1 W6P       0.090200
     13 H051       -45.3970   -33.5570    -4.2620 ha         1 W6P       0.136000
     14 H061       -43.2420   -33.8780    -5.4460 ha         1 W6P       0.135000
     15 H071       -41.5940   -35.5060    -4.6100 ha         1 W6P       0.133000
     16 H081       -42.0590   -36.8530    -2.5830 ha         1 W6P       0.140000
     17 H101       -43.9870   -37.2720    -0.6430 hn         1 W6P       0.338500
@<TRIPOS>BOND
     1     1     2 1   
     2     1     9 1   
     3     1    10 2   
     4     2     3 1   
     5     2    11 1   
     6     2    12 1   
     7     3     4 ar  
     8     3     8 ar  
     9     4     5 ar  
    10     4    13 1   
    11     5     6 ar  
    12     5    14 1   
    13     6     7 ar  
    14     6    15 1   
    15     7     8 ar  
    16     7    16 1   
    17     8     9 1   
    18     9    17 1   
@<TRIPOS>SUBSTRUCTURE
     1 W6P         1 TEMP              0 ****  ****    0 ROOT
