@<TRIPOS>MOLECULE
W6Q
   37    37     1     0     0
SMALL
No Charge or Current Charge


@<TRIPOS>ATOM
      1 O12        -12.9820    -8.0260   -10.4600 o          1 W6Q      -0.597100
      2 C11        -13.3880    -7.4790   -11.4800 c          1 W6Q       0.554100
      3 C7         -14.8570    -6.9800   -11.6630 c3         1 W6Q       0.104300
      4 O9         -15.2530    -6.0260   -10.6580 oh         1 W6Q      -0.643000
      5 C2         -15.8760    -8.1560   -11.5640 c3         1 W6Q       0.152500
      6 C3         -17.0110    -8.0370   -12.6010 c3         1 W6Q      -0.086100
      7 N1         -16.4660    -8.2240   -10.1990 n8         1 W6Q      -0.996200
      8 N13        -12.5540    -7.2600   -12.5560 ns         1 W6Q      -0.499900
      9 C15        -11.1440    -7.6420   -12.5950 c3         1 W6Q       0.149300
     10 C18        -10.4890    -7.1980   -13.9000 ca         1 W6Q      -0.098300
     11 C33        -10.4030    -8.1190   -14.9630 ca         1 W6Q      -0.097000
     12 C28         -9.8120    -7.7570   -16.1870 ca         1 W6Q      -0.074300
     13 C29         -9.7230    -8.7640   -17.3230 c3         1 W6Q      -0.046800
     14 C26         -9.3000    -6.4590   -16.3470 ca         1 W6Q      -0.105000
     15 C24         -9.3830    -5.5320   -15.2950 ca         1 W6Q      -0.103000
     16 C19         -9.9770    -5.8880   -14.0690 ca         1 W6Q      -0.076300
     17 C20        -10.0530    -4.8510   -12.9500 c3         1 W6Q      -0.048800
     18 H1         -14.9220    -6.5290   -12.6620 h1         1 W6Q       0.062700
     19 H2         -15.8830    -6.5930   -10.1310 ho         1 W6Q       0.479000
     20 H3         -15.3610    -9.1070   -11.7540 h1         1 W6Q       0.004700
     21 H4         -17.7060    -8.8820   -12.5170 hc         1 W6Q       0.045700
     22 H5         -17.5770    -7.1080   -12.4620 hc         1 W6Q       0.045700
     23 H6         -16.6020    -8.0400   -13.6190 hc         1 W6Q       0.045700
     24 H7         -17.3000    -8.8250   -10.2290 hn         1 W6Q       0.398000
     25 H8         -15.8270    -8.7600    -9.5930 hn         1 W6Q       0.398000
     26 H10        -12.9460    -6.7940   -13.3660 hn         1 W6Q       0.316500
     27 H11        -11.0730    -8.7340   -12.4970 h1         1 W6Q       0.063700
     28 H12        -10.6240    -7.2000   -11.7360 h1         1 W6Q       0.063700
     29 H13        -10.7990    -9.1250   -14.8380 ha         1 W6Q       0.108000
     30 H14        -10.5780    -9.4510   -17.3170 hc         1 W6Q       0.043033
     31 H15         -9.7100    -8.2660   -18.3000 hc         1 W6Q       0.043033
     32 H16         -8.8100    -9.3650   -17.2410 hc         1 W6Q       0.043033
     33 H17         -8.8360    -6.1650   -17.2860 ha         1 W6Q       0.112000
     34 H18         -8.9830    -4.5300   -15.4380 ha         1 W6Q       0.111000
     35 H19        -11.0820    -4.7230   -12.5960 hc         1 W6Q       0.042367
     36 H20         -9.4340    -5.1480   -12.0950 hc         1 W6Q       0.042367
     37 H21         -9.7000    -3.8680   -13.2820 hc         1 W6Q       0.042367
@<TRIPOS>BOND
     1     1     2 2   
     2     2     3 1   
     3     2     8 1   
     4     3     4 1   
     5     3     5 1   
     6     3    18 1   
     7     4    19 1   
     8     5     6 1   
     9     5     7 1   
    10     5    20 1   
    11     6    21 1   
    12     6    22 1   
    13     6    23 1   
    14     7    24 1   
    15     7    25 1   
    16     8     9 1   
    17     8    26 1   
    18     9    10 1   
    19     9    27 1   
    20     9    28 1   
    21    10    11 ar  
    22    10    16 ar  
    23    11    12 ar  
    24    11    29 1   
    25    12    13 1   
    26    12    14 ar  
    27    13    30 1   
    28    13    31 1   
    29    13    32 1   
    30    14    15 ar  
    31    14    33 1   
    32    15    16 ar  
    33    15    34 1   
    34    16    17 1   
    35    17    35 1   
    36    17    36 1   
    37    17    37 1   
@<TRIPOS>SUBSTRUCTURE
     1 W6Q         1 TEMP              0 ****  ****    0 ROOT
