@<TRIPOS>MOLECULE
W6Q
   37    37     1     0     0
SMALL
abcg2


@<TRIPOS>ATOM
      1 O12        -13.8490    -5.7390   -12.8760 o          1 W6Q      -0.597100
      2 C11        -13.8900    -6.9720   -12.8500 c          1 W6Q       0.554100
      3 C7         -15.2250    -7.6900   -13.0740 c3         1 W6Q       0.104300
      4 O9         -16.1550    -6.7560   -13.5830 oh         1 W6Q      -0.643000
      5 C2         -15.7100    -8.3710   -11.7750 c3         1 W6Q       0.152500
      6 C3         -17.0660    -9.0280   -11.9870 c3         1 W6Q      -0.086100
      7 N1         -15.8000    -7.3890   -10.6870 n8         1 W6Q      -0.996200
      8 N13        -12.8270    -7.7450   -12.5940 ns         1 W6Q      -0.499900
      9 C15        -11.5090    -7.2090   -12.3100 c3         1 W6Q       0.149300
     10 C18        -10.6440    -6.9510   -13.5280 ca         1 W6Q      -0.098300
     11 C33        -11.0740    -7.2800   -14.8080 ca         1 W6Q      -0.097000
     12 C28        -10.2820    -7.0520   -15.9370 ca         1 W6Q      -0.074300
     13 C29        -10.7730    -7.4380   -17.3060 c3         1 W6Q      -0.046800
     14 C26         -9.0310    -6.4740   -15.7490 ca         1 W6Q      -0.105000
     15 C24         -8.5900    -6.1410   -14.4720 ca         1 W6Q      -0.103000
     16 C19         -9.3760    -6.3700   -13.3460 ca         1 W6Q      -0.076300
     17 C20         -8.8770    -5.9980   -11.9760 c3         1 W6Q      -0.048800
     18 H1         -15.0780    -8.4770   -13.8200 h1         1 W6Q       0.062700
     19 H2         -15.7710    -5.8830   -13.3960 ho         1 W6Q       0.479000
     20 H3         -14.9780    -9.1600   -11.5560 h1         1 W6Q       0.004700
     21 H4         -17.3770    -9.5500   -11.0790 hc         1 W6Q       0.045700
     22 H5         -17.8200    -8.2800   -12.2310 hc         1 W6Q       0.045700
     23 H6         -17.0190    -9.7560   -12.7990 hc         1 W6Q       0.045700
     24 H7         -16.2410    -7.8200    -9.8820 hn         1 W6Q       0.398000
     25 H8         -14.8730    -7.1100   -10.3820 hn         1 W6Q       0.398000
     26 H10        -12.9320    -8.7460   -12.6520 hn         1 W6Q       0.316500
     27 H11        -11.0050    -7.9120   -11.6440 h1         1 W6Q       0.063700
     28 H12        -11.6390    -6.2830   -11.7510 h1         1 W6Q       0.063700
     29 H13        -12.0530    -7.7250   -14.9380 ha         1 W6Q       0.108000
     30 H14        -10.7840    -8.5250   -17.4270 hc         1 W6Q       0.043033
     31 H15        -11.7930    -7.0850   -17.4750 hc         1 W6Q       0.043033
     32 H16        -10.1330    -7.0230   -18.0850 hc         1 W6Q       0.043033
     33 H17         -8.3950    -6.2810   -16.6050 ha         1 W6Q       0.112000
     34 H18         -7.6120    -5.6910   -14.3450 ha         1 W6Q       0.111000
     35 H19         -9.5270    -5.2580   -11.5000 hc         1 W6Q       0.042367
     36 H20         -8.8440    -6.8640   -11.3100 hc         1 W6Q       0.042367
     37 H21         -7.8730    -5.5770   -12.0340 hc         1 W6Q       0.042367
@<TRIPOS>BOND
     1     1     2 2   
     2     2     3 1   
     3     2     8 1   
     4     3     4 1   
     5     3     5 1   
     6     3    18 1   
     7     4    19 1   
     8     5     6 1   
     9     5     7 1   
    10     5    20 1   
    11     6    21 1   
    12     6    22 1   
    13     6    23 1   
    14     7    24 1   
    15     7    25 1   
    16     8     9 1   
    17     8    26 1   
    18     9    10 1   
    19     9    27 1   
    20     9    28 1   
    21    10    11 ar  
    22    10    16 ar  
    23    11    12 ar  
    24    11    29 1   
    25    12    13 1   
    26    12    14 ar  
    27    13    30 1   
    28    13    31 1   
    29    13    32 1   
    30    14    15 ar  
    31    14    33 1   
    32    15    16 ar  
    33    15    34 1   
    34    16    17 1   
    35    17    35 1   
    36    17    36 1   
    37    17    37 1   
@<TRIPOS>SUBSTRUCTURE
     1 W6Q         1 TEMP              0 ****  ****    0 ROOT
