@<TRIPOS>MOLECULE
W6R
   25    25     1     0     0
SMALL
No Charge or Current Charge


@<TRIPOS>ATOM
      1 C7          27.5910    14.9250    37.6070 cc         1 W6R      -0.137000
      2 C8          28.9100    15.2130    37.3670 cd         1 W6R      -0.244000
      3 C1          30.3430    14.7160    43.3500 c3         1 W6R      -0.067400
      4 C5          27.9320    16.4940    39.2960 cd         1 W6R      -0.247300
      5 C6          27.0400    15.6450    38.6930 cc         1 W6R      -0.128000
      6 C4          27.6990    17.3940    40.4760 c3         1 W6R       0.176300
      7 C3          29.2350    16.8050    42.3740 c          1 W6R       0.592100
      8 C2          29.3790    15.9010    43.6040 c3         1 W6R      -0.153400
      9 O           30.1130    17.5780    42.0200 o          1 W6R      -0.610100
     10 C           29.8730    13.7570    42.2360 c3         1 W6R      -0.096100
     11 N           28.0330    16.6990    41.7150 ns         1 W6R      -0.505900
     12 S           29.5240    16.4180    38.5150 ss         1 W6R       0.236000
     13 H1          27.0090    14.2130    37.0280 ha         1 W6R       0.132000
     14 H2          29.5610    14.8050    36.6040 h4         1 W6R       0.149000
     15 H3          30.4580    14.1470    44.2810 hc         1 W6R       0.051700
     16 H4          31.3380    15.1040    43.0940 hc         1 W6R       0.051700
     17 H5          26.0070    15.5220    39.0070 ha         1 W6R       0.128000
     18 H6          28.3020    18.3070    40.3780 h1         1 W6R       0.068200
     19 H7          26.6420    17.6910    40.5090 h1         1 W6R       0.068200
     20 H8          29.7860    16.4990    44.4290 hc         1 W6R       0.057700
     21 H9          28.4020    15.4960    43.8940 hc         1 W6R       0.057700
     22 H10         30.5720    12.9180    42.1360 hc         1 W6R       0.036033
     23 H11         28.8810    13.3500    42.4660 hc         1 W6R       0.036033
     24 H12         29.8200    14.2710    41.2680 hc         1 W6R       0.036033
     25 H13         27.3670    16.0310    42.0820 hn         1 W6R       0.312500
@<TRIPOS>BOND
     1     1     2 2   
     2     1     5 1   
     3     1    13 1   
     4     2    12 1   
     5     2    14 1   
     6     3     8 1   
     7     3    10 1   
     8     3    15 1   
     9     3    16 1   
    10     4     5 2   
    11     4     6 1   
    12     4    12 1   
    13     5    17 1   
    14     6    11 1   
    15     6    18 1   
    16     6    19 1   
    17     7     8 1   
    18     7     9 2   
    19     7    11 1   
    20     8    20 1   
    21     8    21 1   
    22    10    22 1   
    23    10    23 1   
    24    10    24 1   
    25    11    25 1   
@<TRIPOS>SUBSTRUCTURE
     1 W6R         1 TEMP              0 ****  ****    0 ROOT
