@<TRIPOS>MOLECULE
W6R
   25    25     1     0     0
SMALL
abcg2


@<TRIPOS>ATOM
      1 C7          27.5200    15.0700    37.4780 cc         1 W6R      -0.137000
      2 C8          28.8840    15.0970    37.4850 cd         1 W6R      -0.244000
      3 C1          30.4270    14.7730    43.3740 c3         1 W6R      -0.067400
      4 C5          27.8900    16.4710    39.3060 cd         1 W6R      -0.247300
      5 C6          26.9530    15.8560    38.5220 cc         1 W6R      -0.128000
      6 C4          27.6480    17.3400    40.5040 c3         1 W6R       0.176300
      7 C3          29.1820    16.6920    42.3190 c          1 W6R       0.592100
      8 C2          29.3630    15.8590    43.5720 c3         1 W6R      -0.153400
      9 O           30.1130    17.3400    41.8350 o          1 W6R      -0.610100
     10 C           30.0370    13.7430    42.3160 c3         1 W6R      -0.096100
     11 N           27.9520    16.6770    41.7660 ns         1 W6R      -0.505900
     12 S           29.4890    16.0820    38.7620 ss         1 W6R       0.236000
     13 H1          26.9380    14.5110    36.7580 ha         1 W6R       0.132000
     14 H2          29.5670    14.5970    36.8170 h4         1 W6R       0.149000
     15 H3          30.5930    14.2760    44.3320 hc         1 W6R       0.051700
     16 H4          31.3710    15.2500    43.0990 hc         1 W6R       0.051700
     17 H5          25.8900    15.9650    38.6900 ha         1 W6R       0.128000
     18 H6          28.2480    18.2470    40.4560 h1         1 W6R       0.068200
     19 H7          26.5970    17.6270    40.5180 h1         1 W6R       0.068200
     20 H8          29.6730    16.5400    44.3680 hc         1 W6R       0.057700
     21 H9          28.4160    15.4060    43.8750 hc         1 W6R       0.057700
     22 H10         30.8050    12.9740    42.2160 hc         1 W6R       0.036033
     23 H11         29.0980    13.2490    42.5800 hc         1 W6R       0.036033
     24 H12         29.9030    14.2090    41.3370 hc         1 W6R       0.036033
     25 H13         27.2600    16.0490    42.1440 hn         1 W6R       0.312500
@<TRIPOS>BOND
     1     1     2 2   
     2     1     5 1   
     3     1    13 1   
     4     2    12 1   
     5     2    14 1   
     6     3     8 1   
     7     3    10 1   
     8     3    15 1   
     9     3    16 1   
    10     4     5 2   
    11     4     6 1   
    12     4    12 1   
    13     5    17 1   
    14     6    11 1   
    15     6    18 1   
    16     6    19 1   
    17     7     8 1   
    18     7     9 2   
    19     7    11 1   
    20     8    20 1   
    21     8    21 1   
    22    10    22 1   
    23    10    23 1   
    24    10    24 1   
    25    11    25 1   
@<TRIPOS>SUBSTRUCTURE
     1 W6R         1 TEMP              0 ****  ****    0 ROOT
