@<TRIPOS>MOLECULE
W6S
   24    25     1     0     0
SMALL
abcg2


@<TRIPOS>ATOM
      1 C01        -38.1800     1.5040     3.5290 cc         1 W6S      -0.174000
      2 C02        -39.1510     1.0170     4.3750 cd         1 W6S      -0.227000
      3 C03        -39.1780    -0.3710     4.1320 cd         1 W6S       0.255300
      4 C04        -40.0250    -1.3990     4.8120 c6         1 W6S      -0.086000
      5 C05        -39.2150    -2.2680     5.7760 c6         1 W6S      -0.105900
      6 C06        -40.1610    -3.1470     6.6130 c6         1 W6S       0.152300
      7 C08        -41.1820    -3.6370     4.4870 c6         1 W6S       0.152300
      8 C09        -40.7730    -2.3090     3.8220 c6         1 W6S      -0.105900
      9 N07        -41.3880    -3.5320     5.9200 n7         1 W6S      -0.852400
     10 N10        -38.2890    -0.6990     3.2080 nc         1 W6S      -0.523800
     11 N11        -37.7030     0.4430     2.8620 na         1 W6S      -0.003200
     12 H011       -37.8080     2.5010     3.3590 h4         1 W6S       0.153000
     13 H021       -39.7560     1.5760     5.0690 ha         1 W6S       0.144000
     14 H041       -40.7650    -0.8510     5.4060 hc         1 W6S       0.046700
     15 H051       -38.5200    -2.8860     5.1990 hc         1 W6S       0.051700
     16 H052       -38.6050    -1.6510     6.4380 hc         1 W6S       0.051700
     17 H061       -39.6260    -4.0470     6.9340 h1         1 W6S       0.048700
     18 H062       -40.4450    -2.6160     7.5240 h1         1 W6S       0.048700
     19 H082       -42.0880    -4.0260     4.0190 h1         1 W6S       0.048700
     20 H081       -40.4070    -4.3910     4.3180 h1         1 W6S       0.048700
     21 H092       -40.1400    -2.5180     2.9560 hc         1 W6S       0.051700
     22 H091       -41.6540    -1.7840     3.4450 hc         1 W6S       0.051700
     23 H1         -42.1060    -2.8410     6.0990 hn         1 W6S       0.403000
     24 H111       -36.9820     0.4440     2.1590 hn         1 W6S       0.369000
@<TRIPOS>BOND
     1     1     2 2   
     2     1    11 1   
     3     1    12 1   
     4     2     3 1   
     5     2    13 1   
     6     3     4 1   
     7     3    10 2   
     8     4     5 1   
     9     4     8 1   
    10     4    14 1   
    11     5     6 1   
    12     5    15 1   
    13     5    16 1   
    14     6     9 1   
    15     6    17 1   
    16     6    18 1   
    17     7     8 1   
    18     7     9 1   
    19     7    19 1   
    20     7    20 1   
    21     8    21 1   
    22     8    22 1   
    23     9    23 1   
    24    10    11 1   
    25    11    24 1   
@<TRIPOS>SUBSTRUCTURE
     1 W6S         1 TEMP              0 ****  ****    0 ROOT
