@<TRIPOS>MOLECULE
W6S
   24    25     1     0     0
SMALL
No Charge or Current Charge


@<TRIPOS>ATOM
      1 C01        -38.2980     1.5650     3.3890 cc         1 W6S      -0.174000
      2 C02        -39.2890     0.9900     4.1320 cd         1 W6S      -0.227000
      3 C03        -39.0670    -0.4020     4.1470 cd         1 W6S       0.255300
      4 C04        -39.9650    -1.3930     4.8710 c6         1 W6S      -0.086000
      5 C05        -39.1680    -2.3230     5.8270 c6         1 W6S      -0.105900
      6 C06        -40.1020    -3.2840     6.6190 c6         1 W6S       0.152300
      7 C08        -41.3100    -3.5870     4.4820 c6         1 W6S       0.152300
      8 C09        -40.8030    -2.2490     3.8710 c6         1 W6S      -0.105900
      9 N07        -41.4180    -3.5040     5.9560 n7         1 W6S      -0.852400
     10 N10        -37.9940    -0.7420     3.4540 nc         1 W6S      -0.523800
     11 N11        -37.5230     0.4780     2.9890 na         1 W6S      -0.003200
     12 H011       -38.0840     2.5940     3.1210 h4         1 W6S       0.153000
     13 H021       -40.1030     1.5110     4.6240 ha         1 W6S       0.144000
     14 H041       -40.6680    -0.8200     5.4920 hc         1 W6S       0.046700
     15 H051       -38.4540    -2.9210     5.2430 hc         1 W6S       0.051700
     16 H052       -38.5670    -1.7290     6.5300 hc         1 W6S       0.051700
     17 H061       -39.5880    -4.2490     6.7460 h1         1 W6S       0.048700
     18 H062       -40.2780    -2.8790     7.6270 h1         1 W6S       0.048700
     19 H082       -42.2850    -3.8460     4.0430 h1         1 W6S       0.048700
     20 H081       -40.6100    -4.3950     4.2200 h1         1 W6S       0.048700
     21 H092       -40.2130    -2.4800     2.9740 hc         1 W6S       0.051700
     22 H091       -41.6590    -1.6540     3.5230 hc         1 W6S       0.051700
     23 H1         -42.0170    -2.6960     6.1680 hn         1 W6S       0.403000
     24 H111       -36.6840     0.5280     2.4110 hn         1 W6S       0.369000
@<TRIPOS>BOND
     1     1     2 2   
     2     1    11 1   
     3     1    12 1   
     4     2     3 1   
     5     2    13 1   
     6     3     4 1   
     7     3    10 2   
     8     4     5 1   
     9     4     8 1   
    10     4    14 1   
    11     5     6 1   
    12     5    15 1   
    13     5    16 1   
    14     6     9 1   
    15     6    17 1   
    16     6    18 1   
    17     7     8 1   
    18     7     9 1   
    19     7    19 1   
    20     7    20 1   
    21     8    21 1   
    22     8    22 1   
    23     9    23 1   
    24    10    11 1   
    25    11    24 1   
@<TRIPOS>SUBSTRUCTURE
     1 W6S         1 TEMP              0 ****  ****    0 ROOT
