@<TRIPOS>MOLECULE
W6T
   18    19     1     0     0
SMALL
No Charge or Current Charge


@<TRIPOS>ATOM
      1 C4         -27.3330    16.8060    29.5220 ca         1 W6T      -0.053000
      2 C5         -27.0810    15.5140    30.0120 ca         1 W6T      -0.137000
      3 C6         -25.8110    14.9350    29.8510 ca         1 W6T      -0.074000
      4 C7         -24.7880    15.6490    29.2000 ca         1 W6T      -0.113000
      5 C8         -25.0240    16.9450    28.7040 ca         1 W6T       0.085000
      6 N2         -25.5440    19.4980    27.7450 nb         1 W6T      -0.229000
      7 C3         -26.3070    17.5160    28.8720 ca         1 W6T      -0.202000
      8 N3         -24.0500    17.6390    28.0770 nb         1 W6T      -0.259000
      9 C1         -24.3660    18.8670    27.6360 ca         1 W6T       0.381900
     10 C2         -26.5230    18.8140    28.3680 ca         1 W6T       0.173900
     11 H4         -28.3180    17.2510    29.6490 ha         1 W6T       0.114000
     12 H5         -27.8710    14.9610    30.5160 ha         1 W6T       0.117000
     13 H6         -25.6170    13.9340    30.2310 ha         1 W6T       0.114000
     14 H7         -23.8080    15.1940    29.0800 ha         1 W6T       0.132000
     15 H1         -23.4900    20.5500    26.8650 hn         1 W6T       0.497000
     16 H2         -22.4180    19.2090    27.1010 hn         1 W6T       0.497000
     17 H3         -27.4870    19.3120    28.4640 h4         1 W6T       0.021100
     18 N1         -23.3730    19.5490    27.0120 nv         1 W6T      -1.064900
@<TRIPOS>BOND
     1     1     2 ar  
     2     1     7 ar  
     3     1    11 1   
     4     2     3 ar  
     5     2    12 1   
     6     3     4 ar  
     7     3    13 1   
     8     4     5 ar  
     9     4    14 1   
    10     5     7 ar  
    11     5     8 ar  
    12     6     9 ar  
    13     6    10 ar  
    14     7    10 ar  
    15     8     9 ar  
    16     9    18 1   
    17    10    17 1   
    18    15    18 1   
    19    16    18 1   
@<TRIPOS>SUBSTRUCTURE
     1 W6T         1 TEMP              0 ****  ****    0 ROOT
