@<TRIPOS>MOLECULE
W6T
   18    19     1     0     0
SMALL
abcg2


@<TRIPOS>ATOM
      1 C4         -27.3440    16.7860    29.5260 ca         1 W6T      -0.053000
      2 C5         -27.0910    15.5250    29.9970 ca         1 W6T      -0.137000
      3 C6         -25.8070    14.9640    29.8350 ca         1 W6T      -0.074000
      4 C7         -24.7980    15.6510    29.2110 ca         1 W6T      -0.113000
      5 C8         -25.0330    16.9540    28.7170 ca         1 W6T       0.085000
      6 N2         -25.5380    19.4760    27.7790 nb         1 W6T      -0.229000
      7 C3         -26.3210    17.5100    28.8830 ca         1 W6T      -0.202000
      8 N3         -24.0450    17.6400    28.1060 nb         1 W6T      -0.259000
      9 C1         -24.3320    18.8460    27.6690 ca         1 W6T       0.381900
     10 C2         -26.4880    18.8160    28.3690 ca         1 W6T       0.173900
     11 H4         -28.3220    17.2370    29.6400 ha         1 W6T       0.114000
     12 H5         -27.8660    14.9580    30.4930 ha         1 W6T       0.117000
     13 H6         -25.6170    13.9660    30.2110 ha         1 W6T       0.114000
     14 H7         -23.8150    15.2150    29.0890 ha         1 W6T       0.132000
     15 H1         -23.5290    20.5250    26.8470 hn         1 W6T       0.497000
     16 H2         -22.4300    19.2190    27.0460 hn         1 W6T       0.497000
     17 H3         -27.4530    19.3090    28.4630 h4         1 W6T       0.021100
     18 N1         -23.3800    19.5470    27.0240 nv         1 W6T      -1.064900
@<TRIPOS>BOND
     1     1     2 ar  
     2     1     7 ar  
     3     1    11 1   
     4     2     3 ar  
     5     2    12 1   
     6     3     4 ar  
     7     3    13 1   
     8     4     5 ar  
     9     4    14 1   
    10     5     7 ar  
    11     5     8 ar  
    12     6     9 ar  
    13     6    10 ar  
    14     7    10 ar  
    15     8     9 ar  
    16     9    18 1   
    17    10    17 1   
    18    15    18 1   
    19    16    18 1   
@<TRIPOS>SUBSTRUCTURE
     1 W6T         1 TEMP              0 ****  ****    0 ROOT
