@<TRIPOS>MOLECULE
W6V
   22    23     1     0     0
SMALL
bcc


@<TRIPOS>ATOM
      1 C10        -40.0820   -35.5950    -7.7220 ca         1 W6V      -0.084000
      2 C13        -40.8880   -33.0380    -8.4480 ca         1 W6V      -0.136500
      3 C02        -41.7430   -35.5730    -5.8200 c          1 W6V       0.686700
      4 C04        -41.5210   -37.2580    -4.0980 cc         1 W6V       0.531300
      5 C06        -41.4950   -38.7440    -2.4950 cd         1 W6V       0.368200
      6 C07        -42.7470   -38.2730    -2.2930 cc         1 W6V      -0.253400
      7 C09        -41.0690   -34.9440    -6.9840 ca         1 W6V      -0.152600
      8 C11        -39.5020   -34.9690    -8.8150 ca         1 W6V      -0.136500
      9 C12        -39.8990   -33.6890    -9.1760 ca         1 W6V      -0.099000
     10 C14        -41.4780   -33.6650    -7.3630 ca         1 W6V      -0.084000
     11 N03        -41.0410   -36.5390    -5.1670 ns         1 W6V      -0.532400
     12 N05        -40.8010   -38.1660    -3.5210 nd         1 W6V      -0.710000
     13 O01        -42.8590   -35.2510    -5.4510 o          1 W6V      -0.574100
     14 S08        -43.1020   -37.0310    -3.4330 ss         1 W6V      -0.085300
     15 H101       -39.7710   -36.6030    -7.4780 ha         1 W6V       0.144000
     16 H131       -41.2000   -32.0410    -8.7260 ha         1 W6V       0.138500
     17 H061       -41.0260   -39.5260    -1.9160 h4         1 W6V       0.039100
     18 H071       -43.4690   -38.5790    -1.5520 h4         1 W6V       0.177000
     19 H111       -38.7440   -35.4860    -9.3870 ha         1 W6V       0.138500
     20 H121       -39.4420   -33.1990   -10.0260 ha         1 W6V       0.136000
     21 H141       -42.2490   -33.1560    -6.8000 ha         1 W6V       0.144000
     22 H031       -40.0840   -36.7390    -5.4190 hn         1 W6V       0.343500
@<TRIPOS>BOND
     1     1     7 ar  
     2     1     8 ar  
     3     1    15 1   
     4     2     9 ar  
     5     2    10 ar  
     6     2    16 1   
     7     3     7 1   
     8     3    11 1   
     9     3    13 2   
    10     4    11 1   
    11     4    12 2   
    12     4    14 1   
    13     5     6 2   
    14     5    12 1   
    15     5    17 1   
    16     6    14 1   
    17     6    18 1   
    18     7    10 ar  
    19     8     9 ar  
    20     8    19 1   
    21     9    20 1   
    22    10    21 1   
    23    11    22 1   
@<TRIPOS>SUBSTRUCTURE
     1 W6V         1 TEMP              0 ****  ****    0 ROOT
