@<TRIPOS>MOLECULE
W6V
   22    23     1     0     0
SMALL
No Charge or Current Charge


@<TRIPOS>ATOM
      1 C10        -39.9480   -35.4600    -7.5150 ca         1 W6V      -0.066000
      2 C13        -40.9550   -33.1040    -8.6680 ca         1 W6V      -0.118500
      3 C02        -41.7790   -35.3930    -5.7070 c          1 W6V       0.619700
      4 C04        -41.6720   -37.2610    -4.0880 cc         1 W6V       0.531300
      5 C06        -41.5250   -38.9600    -2.6660 cd         1 W6V       0.302900
      6 C07        -42.6210   -38.3260    -2.1330 cc         1 W6V      -0.315000
      7 C09        -41.0820   -34.8360    -6.9340 ca         1 W6V      -0.152600
      8 C11        -39.3330   -34.9090    -8.6540 ca         1 W6V      -0.118500
      9 C12        -39.8340   -33.7320    -9.2310 ca         1 W6V      -0.081000
     10 C14        -41.5740   -33.6500    -7.5300 ca         1 W6V      -0.066000
     11 N03        -41.2540   -36.5450    -5.1770 ns         1 W6V      -0.465400
     12 N05        -40.9820   -38.3470    -3.7880 nd         1 W6V      -0.710000
     13 O01        -42.7550   -34.8400    -5.2220 o          1 W6V      -0.574100
     14 S08        -43.0290   -36.8980    -3.0380 ss         1 W6V       0.059600
     15 H101       -39.5250   -36.3730    -7.1020 ha         1 W6V       0.126000
     16 H131       -41.3460   -32.1910    -9.1120 ha         1 W6V       0.120500
     17 H061       -41.0760   -39.8690    -2.2840 h4         1 W6V       0.039100
     18 H071       -43.2100   -38.6080    -1.2710 h4         1 W6V       0.159000
     19 H111       -38.4640   -35.3970    -9.0900 ha         1 W6V       0.120500
     20 H121       -39.3560   -33.3080   -10.1110 ha         1 W6V       0.118000
     21 H141       -42.4420   -33.1430    -7.1120 ha         1 W6V       0.126000
     22 H031       -40.4500   -36.9150    -5.6560 hn         1 W6V       0.343500
@<TRIPOS>BOND
     1     1     7 ar  
     2     1     8 ar  
     3     1    15 1   
     4     2     9 ar  
     5     2    10 ar  
     6     2    16 1   
     7     3     7 1   
     8     3    11 1   
     9     3    13 2   
    10     4    11 1   
    11     4    12 2   
    12     4    14 1   
    13     5     6 2   
    14     5    12 1   
    15     5    17 1   
    16     6    14 1   
    17     6    18 1   
    18     7    10 ar  
    19     8     9 ar  
    20     8    19 1   
    21     9    20 1   
    22    10    21 1   
    23    11    22 1   
@<TRIPOS>SUBSTRUCTURE
     1 W6V         1 TEMP              0 ****  ****    0 ROOT
