@<TRIPOS>MOLECULE
W6W
   30    30     1     0     0
SMALL
abcg2


@<TRIPOS>ATOM
      1 N1          28.8730    12.2580    41.3070 nt         1 W6W      -0.602000
      2 C7          28.0850    14.2450    37.9890 ca         1 W6W      -0.108000
      3 C8          29.2210    14.3500    37.1910 ca         1 W6W      -0.109000
      4 C9          30.2590    15.1870    37.5750 ca         1 W6W      -0.093000
      5 C1          29.9920    14.9010    42.2480 c3         1 W6W       0.167800
      6 C5          29.0310    15.8250    39.5830 ca         1 W6W      -0.061300
      7 C6          28.0010    14.9760    39.1640 ca         1 W6W      -0.090000
      8 C4          28.8620    16.5610    40.8900 c3         1 W6W       0.206100
      9 C3          28.6860    12.7400    42.5510 c          1 W6W       0.613100
     10 C2          29.7820    13.6410    43.0910 c3         1 W6W      -0.160400
     11 C10         30.1510    15.9080    38.7600 ca         1 W6W      -0.004900
     12 N           28.7510    15.6360    42.0210 n3         1 W6W      -0.724600
     13 C           28.2920    16.3310    43.2160 c3         1 W6W       0.151100
     14 O           27.6940    12.4490    43.2210 o          1 W6W      -0.615100
     15 H1          28.1370    11.7290    40.8670 hn         1 W6W       0.309500
     16 H2          29.6330    12.5730    40.7270 hn         1 W6W       0.309500
     17 H3          27.2700    13.5960    37.6960 ha         1 W6W       0.120000
     18 H4          29.3030    13.7850    36.2710 ha         1 W6W       0.119000
     19 H5          31.1470    15.2770    36.9650 ha         1 W6W       0.131000
     20 H6          30.4000    14.6190    41.2780 h1         1 W6W       0.037700
     21 H7          30.7520    15.5340    42.7350 h1         1 W6W       0.037700
     22 H8          27.1260    14.8890    39.7950 ha         1 W6W       0.133000
     23 H9          29.6750    17.2830    41.0350 h1         1 W6W       0.052200
     24 H10         27.9320    17.1320    40.8460 h1         1 W6W       0.052200
     25 H11         30.7220    13.0850    43.1210 hc         1 W6W       0.067700
     26 H12         29.5160    13.8910    44.1160 hc         1 W6W       0.067700
     27 H14         28.1280    15.6210    44.0260 h1         1 W6W       0.036700
     28 H15         29.0130    17.0890    43.5640 h1         1 W6W       0.036700
     29 H16         27.3450    16.8290    43.0060 h1         1 W6W       0.036700
     30 BR          31.6500    17.0250    39.2280 br         1 W6W      -0.119100
@<TRIPOS>BOND
     1     1     9 1   
     2     1    15 1   
     3     1    16 1   
     4     2     3 ar  
     5     2     7 ar  
     6     2    17 1   
     7     3     4 ar  
     8     3    18 1   
     9     4    11 ar  
    10     4    19 1   
    11     5    10 1   
    12     5    12 1   
    13     5    20 1   
    14     5    21 1   
    15     6     7 ar  
    16     6     8 1   
    17     6    11 ar  
    18     7    22 1   
    19     8    12 1   
    20     8    23 1   
    21     8    24 1   
    22     9    10 1   
    23     9    14 2   
    24    10    25 1   
    25    10    26 1   
    26    11    30 1   
    27    12    13 1   
    28    13    27 1   
    29    13    28 1   
    30    13    29 1   
@<TRIPOS>SUBSTRUCTURE
     1 W6W         1 TEMP              0 ****  ****    0 ROOT
