@<TRIPOS>MOLECULE
W6W
   30    30     1     0     0
SMALL
No Charge or Current Charge


@<TRIPOS>ATOM
      1 N1          29.1680    11.7130    41.8330 nt         1 W6W      -0.602000
      2 C7          27.9290    14.6040    37.6830 ca         1 W6W      -0.108000
      3 C8          29.1460    14.6110    36.9840 ca         1 W6W      -0.109000
      4 C9          30.2630    15.2630    37.5320 ca         1 W6W      -0.093000
      5 C1          29.9350    14.8360    42.1480 c3         1 W6W       0.167800
      6 C5          28.9430    15.9110    39.4870 ca         1 W6W      -0.061300
      7 C6          27.8300    15.2500    38.9280 ca         1 W6W      -0.090000
      8 C4          28.7760    16.5970    40.8460 c3         1 W6W       0.206100
      9 C3          28.7760    12.6490    42.7260 c          1 W6W       0.613100
     10 C2          29.8390    13.6630    43.1460 c3         1 W6W      -0.160400
     11 C10         30.1690    15.9110    38.7760 ca         1 W6W      -0.004900
     12 N           28.7010    15.6470    41.9880 n3         1 W6W      -0.724600
     13 C           28.2680    16.3260    43.2350 c3         1 W6W       0.151100
     14 O           27.6340    12.6460    43.1540 o          1 W6W      -0.615100
     15 H1          28.5040    11.0220    41.5200 hn         1 W6W       0.309500
     16 H2          30.1130    11.7160    41.4770 hn         1 W6W       0.309500
     17 H3          27.0620    14.0980    37.2630 ha         1 W6W       0.120000
     18 H4          29.2240    14.1110    36.0210 ha         1 W6W       0.119000
     19 H5          31.2060    15.2630    36.9900 ha         1 W6W       0.131000
     20 H6          30.2250    14.4050    41.1800 h1         1 W6W       0.037700
     21 H7          30.7640    15.4860    42.4600 h1         1 W6W       0.037700
     22 H8          26.8840    15.2350    39.4660 ha         1 W6W       0.133000
     23 H9          29.5770    17.3280    41.0130 h1         1 W6W       0.052200
     24 H10         27.8460    17.1820    40.7980 h1         1 W6W       0.052200
     25 H11         30.8200    13.1760    43.1180 hc         1 W6W       0.067700
     26 H12         29.6330    14.0340    44.1550 hc         1 W6W       0.067700
     27 H14         28.0470    15.6010    44.0290 h1         1 W6W       0.036700
     28 H15         29.0460    17.0120    43.5980 h1         1 W6W       0.036700
     29 H16         27.3530    16.9080    43.0630 h1         1 W6W       0.036700
     30 Br          31.7470    16.7630    39.4640 br         1 W6W      -0.119100
@<TRIPOS>BOND
     1     1     9 1   
     2     1    15 1   
     3     1    16 1   
     4     2     3 ar  
     5     2     7 ar  
     6     2    17 1   
     7     3     4 ar  
     8     3    18 1   
     9     4    11 ar  
    10     4    19 1   
    11     5    10 1   
    12     5    12 1   
    13     5    20 1   
    14     5    21 1   
    15     6     7 ar  
    16     6     8 1   
    17     6    11 ar  
    18     7    22 1   
    19     8    12 1   
    20     8    23 1   
    21     8    24 1   
    22     9    10 1   
    23     9    14 2   
    24    10    25 1   
    25    10    26 1   
    26    11    30 1   
    27    12    13 1   
    28    13    27 1   
    29    13    28 1   
    30    13    29 1   
@<TRIPOS>SUBSTRUCTURE
     1 W6W         1 TEMP              0 ****  ****    0 ROOT
