@<TRIPOS>MOLECULE
W6X
   10     9     1     0     0
SMALL
bcc


@<TRIPOS>ATOM
      1 C01         -0.3940    20.3620     4.3210 c3         1 W6X      -0.196100
      2 C02         -1.8200    19.9700     4.1290 c          1 W6X       0.524100
      3 C03         -2.0820    18.4800     3.8320 c3         1 W6X       0.554900
      4 F04         -3.2180    18.3100     3.1680 f          1 W6X      -0.225633
      5 F05         -2.1640    17.8120     4.9860 f          1 W6X      -0.225633
      6 F06         -1.0970    17.9330     3.1190 f          1 W6X      -0.225633
      7 O07         -2.7650    20.7050     4.2000 o          1 W6X      -0.444100
      8 H012        -0.3300    21.3460     4.7780 hc         1 W6X       0.079033
      9 H011         0.1480    19.6390     4.9310 hc         1 W6X       0.079033
     10 H013         0.1040    20.3960     3.3490 hc         1 W6X       0.079033
@<TRIPOS>BOND
     1     1     2 1   
     2     1     8 1   
     3     1     9 1   
     4     1    10 1   
     5     2     3 1   
     6     2     7 2   
     7     3     4 1   
     8     3     5 1   
     9     3     6 1   
@<TRIPOS>SUBSTRUCTURE
     1 W6X         1 TEMP              0 ****  ****    0 ROOT
