@<TRIPOS>MOLECULE
W6X
   10     9     1     0     0
SMALL
No Charge or Current Charge


@<TRIPOS>ATOM
      1 C01         -0.4030    20.3890     4.4180 c3         1 W6X      -0.196100
      2 C02         -1.8380    19.9790     4.0720 c          1 W6X       0.524100
      3 C03         -2.0800    18.4760     3.7700 c3         1 W6X       0.191000
      4 F04         -3.3780    18.2190     3.4760 f          1 W6X      -0.104333
      5 F05         -1.7490    17.6990     4.8280 f          1 W6X      -0.104333
      6 F06         -1.3420    18.0580     2.7140 f          1 W6X      -0.104333
      7 O07         -2.7350    20.8160     4.0410 o          1 W6X      -0.444100
      8 H012        -0.3070    21.4620     4.6180 hc         1 W6X       0.079033
      9 H011        -0.0520    19.7870     5.2630 hc         1 W6X       0.079033
     10 H013         0.2660    20.0670     3.6120 hc         1 W6X       0.079033
@<TRIPOS>BOND
     1     1     2 1   
     2     1     8 1   
     3     1     9 1   
     4     1    10 1   
     5     2     3 1   
     6     2     7 2   
     7     3     4 1   
     8     3     5 1   
     9     3     6 1   
@<TRIPOS>SUBSTRUCTURE
     1 W6X         1 TEMP              0 ****  ****    0 ROOT
