@<TRIPOS>MOLECULE
W6Y
   38    40     1     0     0
SMALL
abcg2


@<TRIPOS>ATOM
      1 OAA         -5.0560    -2.2160    -0.8170 o          1 W6Y      -0.725500
      2 CAQ         -5.6730    -1.2710    -0.2880 c          1 W6Y       0.713600
      3 OAE         -6.8640    -1.2780     0.0760 o          1 W6Y      -0.725500
      4 CAT         -4.9220     0.0480    -0.0980 ca         1 W6Y      -0.103600
      5 CAH         -5.6620     1.2070    -0.1440 ca         1 W6Y      -0.132000
      6 CAG         -5.0690     2.4780    -0.0430 ca         1 W6Y      -0.128000
      7 CAJ         -3.7200     2.5910     0.1400 ca         1 W6Y      -0.142000
      8 CAY         -2.9140     1.4330     0.2260 ca         1 W6Y      -0.050000
      9 CAL         -1.5200     1.5520     0.4470 ca         1 W6Y      -0.136000
     10 CAZ         -3.5090     0.1450     0.0980 ca         1 W6Y      -0.016000
     11 CAK         -2.6470    -0.9770     0.2300 ca         1 W6Y      -0.071000
     12 CAI         -1.3070    -0.8240     0.4500 ca         1 W6Y      -0.135000
     13 CAS         -0.7100     0.4550     0.5570 ca         1 W6Y      -0.067300
     14 CAM          0.7740     0.5720     0.7470 c3         1 W6Y      -0.021100
     15 CAN          1.5360     0.3260    -0.5630 c3         1 W6Y       0.013800
     16 CAU          3.0190     0.2590    -0.3550 cc         1 W6Y      -0.277400
     17 CAX          3.7370     1.5270    -0.3930 c          1 W6Y       0.575200
     18 OAD          3.2150     2.6160    -0.5700 o          1 W6Y      -0.585000
     19 NAP          5.1060     1.4500    -0.2060 ns         1 W6Y      -0.473500
     20 CAW          5.8440     0.3200     0.0240 c          1 W6Y       0.603000
     21 OAC          7.0510     0.3360     0.1790 o          1 W6Y      -0.628000
     22 NAO          5.0910    -0.8090     0.0640 ns         1 W6Y      -0.493600
     23 CAV          3.7340    -0.8650    -0.1020 cd         1 W6Y       0.016400
     24 CAR          3.1990    -2.3030     0.0430 c          1 W6Y       0.715200
     25 OAF          1.9770    -2.4520     0.1550 o          1 W6Y      -0.685500
     26 OAB          4.0850    -3.1760     0.0510 o          1 W6Y      -0.685500
     27 H2          -6.7340     1.1380    -0.2690 ha         1 W6Y       0.116000
     28 H3          -5.6900     3.3630    -0.1070 ha         1 W6Y       0.074000
     29 H4          -3.2530     3.5650     0.2270 ha         1 W6Y       0.081000
     30 H5          -1.0990     2.5480     0.5380 ha         1 W6Y       0.089000
     31 H6          -3.0610    -1.9690     0.1440 ha         1 W6Y       0.153000
     32 H7          -0.6750    -1.7000     0.5400 ha         1 W6Y       0.134000
     33 H8           1.0230     1.5620     1.1360 hc         1 W6Y       0.041200
     34 H9           1.1100    -0.1590     1.4860 hc         1 W6Y       0.041200
     35 H10          1.1780    -0.5920    -1.0210 hc         1 W6Y       0.059700
     36 H11          1.3140     1.1390    -1.2580 hc         1 W6Y       0.059700
     37 H12          5.6190     2.3220    -0.2330 hn         1 W6Y       0.311500
     38 H13          5.5480    -1.7000     0.2230 hn         1 W6Y       0.484000
@<TRIPOS>BOND
     1     1     2 1   
     2     2     3 1   
     3     2     4 1   
     4     4     5 ar  
     5     4    10 ar  
     6     5     6 ar  
     7     5    27 1   
     8     6     7 ar  
     9     6    28 1   
    10     7     8 ar  
    11     7    29 1   
    12     8     9 ar  
    13     8    10 ar  
    14     9    13 ar  
    15     9    30 1   
    16    10    11 ar  
    17    11    12 ar  
    18    11    31 1   
    19    12    13 ar  
    20    12    32 1   
    21    13    14 1   
    22    14    15 1   
    23    14    33 1   
    24    14    34 1   
    25    15    16 1   
    26    15    35 1   
    27    15    36 1   
    28    16    17 1   
    29    16    23 2   
    30    17    18 2   
    31    17    19 1   
    32    19    20 1   
    33    19    37 1   
    34    20    21 2   
    35    20    22 1   
    36    22    23 1   
    37    22    38 1   
    38    23    24 1   
    39    24    25 1   
    40    24    26 1   
@<TRIPOS>SUBSTRUCTURE
     1 W6Y         1 TEMP              0 ****  ****    0 ROOT
