@<TRIPOS>MOLECULE
W6Y
   38    40     1     0     0
SMALL
No Charge or Current Charge


@<TRIPOS>ATOM
      1 OAA         -5.5210    -1.8500    -1.2060 o          1 W6Y      -0.725500
      2 CAQ         -5.7580    -1.1230    -0.2510 c          1 W6Y       0.713600
      3 OAE         -6.6430    -1.3480     0.5630 o          1 W6Y      -0.725500
      4 CAT         -4.9740     0.1610    -0.1120 ca         1 W6Y      -0.103600
      5 CAH         -5.6680     1.3890    -0.1990 ca         1 W6Y      -0.132000
      6 CAG         -4.9860     2.6090    -0.0880 ca         1 W6Y      -0.128000
      7 CAJ         -3.5990     2.6210     0.1160 ca         1 W6Y      -0.142000
      8 CAY         -2.8900     1.4110     0.2160 ca         1 W6Y      -0.050000
      9 CAL         -1.4990     1.4410     0.4300 ca         1 W6Y      -0.136000
     10 CAZ         -3.5700     0.1720     0.1050 ca         1 W6Y      -0.016000
     11 CAK         -2.8260    -1.0240     0.2270 ca         1 W6Y      -0.071000
     12 CAI         -1.4370    -0.9840     0.4430 ca         1 W6Y      -0.135000
     13 CAS         -0.7660     0.2470     0.5450 ca         1 W6Y      -0.067300
     14 CAM          0.7390     0.2840     0.7750 c3         1 W6Y      -0.021100
     15 CAN          1.5340     0.1630    -0.5430 c3         1 W6Y       0.013800
     16 CAU          3.0420     0.1900    -0.3280 cc         1 W6Y      -0.277400
     17 CAX          3.6470     1.5530    -0.4190 c          1 W6Y       0.575200
     18 OAD          3.0280     2.5850    -0.6290 o          1 W6Y      -0.585000
     19 NAP          4.9940     1.5990    -0.2460 ns         1 W6Y      -0.473500
     20 CAW          5.8370     0.5740    -0.0020 c          1 W6Y       0.603000
     21 OAC          7.0360     0.7190     0.1350 o          1 W6Y      -0.628000
     22 NAO          5.2320    -0.6340     0.0800 ns         1 W6Y      -0.493600
     23 CAV          3.8730    -0.9050    -0.0580 cd         1 W6Y       0.016400
     24 CAR          3.4300    -2.3560     0.1090 c          1 W6Y       0.715200
     25 OAF          2.2520    -2.6740     0.0350 o          1 W6Y      -0.685500
     26 OAB          4.3080    -3.1820     0.3340 o          1 W6Y      -0.685500
     27 H2          -6.7440     1.3900    -0.3610 ha         1 W6Y       0.116000
     28 H3          -5.5320     3.5470    -0.1620 ha         1 W6Y       0.074000
     29 H4          -3.0780     3.5710     0.2000 ha         1 W6Y       0.081000
     30 H5          -0.9850     2.3970     0.5090 ha         1 W6Y       0.089000
     31 H6          -3.3100    -1.9940     0.1600 ha         1 W6Y       0.153000
     32 H7          -0.8800    -1.9150     0.5300 ha         1 W6Y       0.134000
     33 H8           1.0230     1.2160     1.2790 hc         1 W6Y       0.041200
     34 H9           1.0350    -0.5280     1.4500 hc         1 W6Y       0.041200
     35 H10          1.2290    -0.7430    -1.0760 hc         1 W6Y       0.059700
     36 H11          1.2180     0.9740    -1.2100 hc         1 W6Y       0.059700
     37 H12          5.4160     2.5110    -0.3080 hn         1 W6Y       0.311500
     38 H13          5.8690    -1.4020     0.2720 hn         1 W6Y       0.484000
@<TRIPOS>BOND
     1     1     2 1   
     2     2     3 1   
     3     2     4 1   
     4     4     5 ar  
     5     4    10 ar  
     6     5     6 ar  
     7     5    27 1   
     8     6     7 ar  
     9     6    28 1   
    10     7     8 ar  
    11     7    29 1   
    12     8     9 ar  
    13     8    10 ar  
    14     9    13 ar  
    15     9    30 1   
    16    10    11 ar  
    17    11    12 ar  
    18    11    31 1   
    19    12    13 ar  
    20    12    32 1   
    21    13    14 1   
    22    14    15 1   
    23    14    33 1   
    24    14    34 1   
    25    15    16 1   
    26    15    35 1   
    27    15    36 1   
    28    16    17 1   
    29    16    23 2   
    30    17    18 2   
    31    17    19 1   
    32    19    20 1   
    33    19    37 1   
    34    20    21 2   
    35    20    22 1   
    36    22    23 1   
    37    22    38 1   
    38    23    24 1   
    39    24    25 1   
    40    24    26 1   
@<TRIPOS>SUBSTRUCTURE
     1 W6Y         1 TEMP              0 ****  ****    0 ROOT
