@<TRIPOS>MOLECULE
W6Z
   13    12     1     0     0
SMALL
abcg2


@<TRIPOS>ATOM
      1 C01         -0.3920    20.1670     4.3010 c3         1 W6Z      -0.172100
      2 C02         -1.7080    20.2120     3.5350 c3         1 W6Z       0.356000
      3 C05         -2.1190    18.8030     3.0660 c3         1 W6Z       0.294000
      4 F06         -1.1620    18.2150     2.3410 f          1 W6Z      -0.106667
      5 F07         -3.2240    18.8320     2.3190 f          1 W6Z      -0.106667
      6 F08         -2.3660    18.0090     4.1130 f          1 W6Z      -0.106667
      7 O03         -2.7530    20.7140     4.3150 oh         1 W6Z      -0.645000
      8 O04         -1.6230    20.9500     2.3690 oh         1 W6Z      -0.645000
      9 H012        -0.4440    19.5210     5.1780 hc         1 W6Z       0.066033
     10 H013         0.4250    19.8200     3.6700 hc         1 W6Z       0.066033
     11 H011        -0.1440    21.1730     4.6450 hc         1 W6Z       0.066033
     12 H031        -2.5610    20.5940     5.2510 ho         1 W6Z       0.468500
     13 H041        -1.2050    21.7990     2.5600 ho         1 W6Z       0.468500
@<TRIPOS>BOND
     1     1     2 1   
     2     1     9 1   
     3     1    10 1   
     4     1    11 1   
     5     2     3 1   
     6     2     7 1   
     7     2     8 1   
     8     3     4 1   
     9     3     5 1   
    10     3     6 1   
    11     7    12 1   
    12     8    13 1   
@<TRIPOS>SUBSTRUCTURE
     1 W6Z         1 TEMP              0 ****  ****    0 ROOT
