@<TRIPOS>MOLECULE
W6Z
   13    12     1     0     0
SMALL
No Charge or Current Charge


@<TRIPOS>ATOM
      1 C01         -0.4440    20.1510     4.3360 c3         1 W6Z      -0.172100
      2 C02         -1.7720    20.1320     3.5500 c3         1 W6Z       0.356000
      3 C05         -2.1360    18.6960     2.9880 c3         1 W6Z       0.294000
      4 F06         -1.1770    18.2380     2.1460 f          1 W6Z      -0.106667
      5 F07         -3.3060    18.7100     2.3030 f          1 W6Z      -0.106667
      6 F08         -2.2630    17.7920     3.9900 f          1 W6Z      -0.106667
      7 O03         -2.8000    20.6190     4.4010 oh         1 W6Z      -0.645000
      8 O04         -1.6790    21.0800     2.4970 oh         1 W6Z      -0.645000
      9 H012        -0.4910    19.4670     5.1930 hc         1 W6Z       0.066033
     10 H013         0.3890    19.8290     3.6990 hc         1 W6Z       0.066033
     11 H011        -0.2100    21.1530     4.7170 hc         1 W6Z       0.066033
     12 H031        -2.3680    21.1940     5.0660 ho         1 W6Z       0.468500
     13 H041        -1.0190    21.7480     2.7760 ho         1 W6Z       0.468500
@<TRIPOS>BOND
     1     1     2 1   
     2     1     9 1   
     3     1    10 1   
     4     1    11 1   
     5     2     3 1   
     6     2     7 1   
     7     2     8 1   
     8     3     4 1   
     9     3     5 1   
    10     3     6 1   
    11     7    12 1   
    12     8    13 1   
@<TRIPOS>SUBSTRUCTURE
     1 W6Z         1 TEMP              0 ****  ****    0 ROOT
