@<TRIPOS>MOLECULE
W70
   41    43     1     0     0
SMALL
No Charge or Current Charge


@<TRIPOS>ATOM
      1 OAJ          2.1480     2.5540     0.0980 o          1 W70      -0.688000
      2 CAI          3.3490     2.3810    -0.0500 c          1 W70       0.718200
      3 OAK          4.1020     3.3100    -0.3250 o          1 W70      -0.688000
      4 C4           3.9670     0.9960     0.0870 cc         1 W70       0.028400
      5 N3           5.3410     0.9360    -0.1430 ns         1 W70      -0.494600
      6 C2           6.1170    -0.1740    -0.1060 c          1 W70       0.606000
      7 O2           7.3130    -0.1470    -0.3190 o          1 W70      -0.608000
      8 N1           5.4440    -1.3100     0.1860 ns         1 W70      -0.471500
      9 C6           4.1160    -1.4630     0.4450 c          1 W70       0.578200
     10 O6           3.6620    -2.5700     0.6870 o          1 W70      -0.590000
     11 C5           3.3170    -0.2000     0.4000 cd         1 W70      -0.295400
     12 CAL          1.8340    -0.3680     0.7040 c3         1 W70       0.021800
     13 CAM          0.9920    -0.5870    -0.5700 c3         1 W70      -0.034100
     14 CAN         -0.4920    -0.7400    -0.2610 ca         1 W70      -0.050300
     15 CAS         -1.0600    -2.0200    -0.1130 ca         1 W70      -0.100500
     16 CAR         -2.4290    -2.1580     0.1780 ca         1 W70      -0.124000
     17 CAO         -1.3030     0.4010    -0.1080 ca         1 W70      -0.100500
     18 CAP         -2.6720     0.2640     0.1820 ca         1 W70      -0.124000
     19 CAQ         -3.2390    -1.0190     0.3140 ca         1 W70       0.064100
     20 OAT         -4.5740    -1.1810     0.6120 os         1 W70      -0.256200
     21 CAU         -5.5620    -0.3780     0.0880 ca         1 W70       0.149100
     22 CAW         -5.5080     0.0670    -1.2490 ca         1 W70      -0.164000
     23 CAV         -6.5380     0.8730    -1.7640 ca         1 W70      -0.082000
     24 CAZ         -7.6260     1.2280    -0.9470 ca         1 W70      -0.156000
     25 CAY         -7.6880     0.7740     0.3820 ca         1 W70      -0.082000
     26 CAX         -6.6570    -0.0320     0.8970 ca         1 W70      -0.164000
     27 H2           5.8350     1.7950    -0.3680 hn         1 W70       0.490000
     28 H3           5.9970    -2.1510     0.2160 hn         1 W70       0.319500
     29 H4           1.6640    -1.2160     1.3790 hc         1 W70       0.057200
     30 H5           1.4440     0.4910     1.2590 hc         1 W70       0.057200
     31 H6           1.1460     0.2560    -1.2540 hc         1 W70       0.055700
     32 H7           1.3630    -1.4750    -1.0960 hc         1 W70       0.055700
     33 H8          -0.4410    -2.9090    -0.2190 ha         1 W70       0.132500
     34 H9          -2.8640    -3.1480     0.2940 ha         1 W70       0.117500
     35 H10         -0.8710     1.3940    -0.2100 ha         1 W70       0.132500
     36 H11         -3.2860     1.1530     0.3080 ha         1 W70       0.117500
     37 H12         -4.6740    -0.2150    -1.8870 ha         1 W70       0.128000
     38 H13         -6.4950     1.2190    -2.7940 ha         1 W70       0.106000
     39 H14         -8.4240     1.8510    -1.3460 ha         1 W70       0.106000
     40 H15         -8.5330     1.0450     1.0120 ha         1 W70       0.106000
     41 H16         -6.7030    -0.3860     1.9230 ha         1 W70       0.128000
@<TRIPOS>BOND
     1     1     2 1   
     2     2     3 1   
     3     2     4 1   
     4     4     5 1   
     5     4    11 2   
     6     5     6 1   
     7     5    27 1   
     8     6     7 2   
     9     6     8 1   
    10     8     9 1   
    11     8    28 1   
    12     9    10 2   
    13     9    11 1   
    14    11    12 1   
    15    12    13 1   
    16    12    29 1   
    17    12    30 1   
    18    13    14 1   
    19    13    31 1   
    20    13    32 1   
    21    14    15 ar  
    22    14    17 ar  
    23    15    16 ar  
    24    15    33 1   
    25    16    19 ar  
    26    16    34 1   
    27    17    18 ar  
    28    17    35 1   
    29    18    19 ar  
    30    18    36 1   
    31    19    20 1   
    32    20    21 1   
    33    21    22 ar  
    34    21    26 ar  
    35    22    23 ar  
    36    22    37 1   
    37    23    24 ar  
    38    23    38 1   
    39    24    25 ar  
    40    24    39 1   
    41    25    26 ar  
    42    25    40 1   
    43    26    41 1   
@<TRIPOS>SUBSTRUCTURE
     1 W70         1 TEMP              0 ****  ****    0 ROOT
