@<TRIPOS>MOLECULE
W70
   41    43     1     0     0
SMALL
abcg2


@<TRIPOS>ATOM
      1 OAJ          2.3580     2.4340     0.5570 o          1 W70      -0.688000
      2 CAI          3.5660     2.2380     0.3800 c          1 W70       0.718200
      3 OAK          4.4840     3.0760     0.3330 o          1 W70      -0.688000
      4 C4           4.0330     0.7830     0.1720 cc         1 W70       0.028400
      5 N3           5.3480     0.7230    -0.1990 ns         1 W70      -0.494600
      6 C2           6.0380    -0.4110    -0.4780 c          1 W70       0.606000
      7 O2           7.2100    -0.4310    -0.8050 o          1 W70      -0.608000
      8 N1           5.2780    -1.5450    -0.3590 ns         1 W70      -0.471500
      9 C6           3.9480    -1.6190     0.0100 c          1 W70       0.578200
     10 O6           3.3990    -2.7090     0.0610 o          1 W70      -0.590000
     11 C5           3.3000    -0.3490     0.3130 cd         1 W70      -0.295400
     12 CAL          1.8550    -0.4160     0.7100 c3         1 W70       0.021800
     13 CAM          0.9180    -0.3160    -0.5000 c3         1 W70      -0.034100
     14 CAN         -0.5260    -0.3300    -0.0890 ca         1 W70      -0.050300
     15 CAS         -1.2430    -1.5200    -0.0000 ca         1 W70      -0.100500
     16 CAR         -2.5700    -1.5320     0.4090 ca         1 W70      -0.124000
     17 CAO         -1.1710     0.8560     0.2590 ca         1 W70      -0.100500
     18 CAP         -2.4960     0.8620     0.6660 ca         1 W70      -0.124000
     19 CAQ         -3.1890    -0.3370     0.7390 ca         1 W70       0.064100
     20 OAT         -4.4940    -0.3480     1.1740 os         1 W70      -0.256200
     21 CAU         -5.4900    -0.1110     0.2760 ca         1 W70       0.149100
     22 CAW         -5.2810     0.0040    -1.0940 ca         1 W70      -0.164000
     23 CAV         -6.3680     0.2320    -1.9310 ca         1 W70      -0.082000
     24 CAZ         -7.6520     0.3460    -1.4180 ca         1 W70      -0.156000
     25 CAY         -7.8460     0.2300    -0.0470 ca         1 W70      -0.082000
     26 CAX         -6.7750     0.0030     0.8020 ca         1 W70      -0.164000
     27 H2           5.8220     1.6180    -0.2540 hn         1 W70       0.490000
     28 H3           5.7420    -2.4200    -0.5660 hn         1 W70       0.319500
     29 H4           1.6740    -1.3630     1.2200 hc         1 W70       0.057200
     30 H5           1.6190     0.3780     1.4130 hc         1 W70       0.057200
     31 H6           1.1390     0.6090    -1.0350 hc         1 W70       0.055700
     32 H7           1.1170    -1.1430    -1.1860 hc         1 W70       0.055700
     33 H8          -0.7630    -2.4560    -0.2610 ha         1 W70       0.132500
     34 H9          -3.1170    -2.4640     0.4710 ha         1 W70       0.117500
     35 H10         -0.6240     1.7900     0.2060 ha         1 W70       0.132500
     36 H11         -2.9850     1.7920     0.9280 ha         1 W70       0.117500
     37 H12         -4.2900    -0.0840    -1.5190 ha         1 W70       0.128000
     38 H13         -6.2000     0.3180    -2.9960 ha         1 W70       0.106000
     39 H14         -8.4900     0.5230    -2.0780 ha         1 W70       0.106000
     40 H15         -8.8420     0.3170     0.3700 ha         1 W70       0.106000
     41 H16         -6.9260    -0.0850     1.8700 ha         1 W70       0.128000
@<TRIPOS>BOND
     1     1     2 1   
     2     2     3 1   
     3     2     4 1   
     4     4     5 1   
     5     4    11 2   
     6     5     6 1   
     7     5    27 1   
     8     6     7 2   
     9     6     8 1   
    10     8     9 1   
    11     8    28 1   
    12     9    10 2   
    13     9    11 1   
    14    11    12 1   
    15    12    13 1   
    16    12    29 1   
    17    12    30 1   
    18    13    14 1   
    19    13    31 1   
    20    13    32 1   
    21    14    15 ar  
    22    14    17 ar  
    23    15    16 ar  
    24    15    33 1   
    25    16    19 ar  
    26    16    34 1   
    27    17    18 ar  
    28    17    35 1   
    29    18    19 ar  
    30    18    36 1   
    31    19    20 1   
    32    20    21 1   
    33    21    22 ar  
    34    21    26 ar  
    35    22    23 ar  
    36    22    37 1   
    37    23    24 ar  
    38    23    38 1   
    39    24    25 ar  
    40    24    39 1   
    41    25    26 ar  
    42    25    40 1   
    43    26    41 1   
@<TRIPOS>SUBSTRUCTURE
     1 W70         1 TEMP              0 ****  ****    0 ROOT
