@<TRIPOS>MOLECULE
W71
   51    53     1     0     0
SMALL
No Charge or Current Charge


@<TRIPOS>ATOM
      1 O1          -0.0850     1.1590     8.3120 os         1 W71      -0.077700
      2 N2          -0.6980     0.9340     9.6020 nc         1 W71      -0.366300
      3 C3          -0.5680    -0.3650     9.8040 cd         1 W71       0.279300
      4 C31         -1.0880    -1.0060    11.0580 c3         1 W71      -0.132400
      5 C4           0.0850    -1.0110     8.7420 cd         1 W71      -0.251000
      6 C5           0.3710    -0.0450     7.8310 cc         1 W71       0.185300
      7 C1C          1.0590    -0.1060     6.4970 c3         1 W71      -0.116700
      8 C2C          0.0790     0.0130     5.3090 c3         1 W71      -0.073400
      9 C3C          0.7820    -0.0590     3.9360 c3         1 W71      -0.075400
     10 C4C         -0.1990     0.0600     2.7490 c3         1 W71      -0.074400
     11 C5C          0.5030    -0.0130     1.3750 c3         1 W71      -0.073400
     12 C6C         -0.4770     0.1060     0.1880 c3         1 W71      -0.082400
     13 C7C          0.2260     0.0340    -1.1810 c3         1 W71       0.165600
     14 O1B         -0.7840     0.1550    -2.1970 os         1 W71      -0.347100
     15 C1B         -0.4790     0.1280    -3.5420 ca         1 W71       0.171100
     16 C2B         -1.5350     0.2540    -4.4550 ca         1 W71      -0.191000
     17 C3B         -1.2900     0.2340    -5.8390 ca         1 W71      -0.026500
     18 C4B          0.0250     0.0860    -6.3300 ca         1 W71      -0.176900
     19 C5B          1.0870    -0.0410    -5.4060 ca         1 W71      -0.026500
     20 C6B          0.8380    -0.0200    -4.0220 ca         1 W71      -0.191000
     21 C2A          0.2870     0.0650    -7.8040 ce         1 W71       0.649200
     22 N3A          1.4660    -0.0530    -8.3320 n2         1 W71      -0.650900
     23 C4A          1.2640     0.1000    -9.7930 c5         1 W71       0.072800
     24 C5A         -0.2490    -0.1560    -9.9560 c5         1 W71       0.115600
     25 O1A         -0.7730     0.2170    -8.6720 os         1 W71      -0.456600
     26 H311        -0.6050    -0.5790    11.9450 hc         1 W71       0.055700
     27 H312        -2.1690    -0.8570    11.1550 hc         1 W71       0.055700
     28 H313        -0.8960    -2.0850    11.0580 hc         1 W71       0.055700
     29 H4           0.3150    -2.0660     8.6620 ha         1 W71       0.151000
     30 H1C1         1.8030     0.6970     6.4360 hc         1 W71       0.063200
     31 H1C2         1.6120    -1.0500     6.4170 hc         1 W71       0.063200
     32 H2C1        -0.6660    -0.7910     5.3780 hc         1 W71       0.051700
     33 H2C2        -0.4670     0.9620     5.3870 hc         1 W71       0.051700
     34 H3C1         1.5270     0.7440     3.8700 hc         1 W71       0.039200
     35 H3C2         1.3270    -1.0090     3.8590 hc         1 W71       0.039200
     36 H4C1        -0.9440    -0.7440     2.8150 hc         1 W71       0.042700
     37 H4C2        -0.7440     1.0090     2.8260 hc         1 W71       0.042700
     38 H5C1         1.2480     0.7900     1.3090 hc         1 W71       0.039700
     39 H5C2         1.0480    -0.9620     1.2990 hc         1 W71       0.039700
     40 H6C1        -1.2210    -0.6980     0.2500 hc         1 W71       0.056700
     41 H6C2        -1.0200     1.0570     0.2600 hc         1 W71       0.056700
     42 H7C1         0.9570     0.8490    -1.2610 h1         1 W71       0.036200
     43 H7C2         0.7540    -0.9240    -1.2720 h1         1 W71       0.036200
     44 H2B         -2.5520     0.3680    -4.0890 ha         1 W71       0.125000
     45 H3B         -2.1280     0.3330    -6.5270 ha         1 W71       0.132500
     46 H5B          2.1110    -0.1560    -5.7570 ha         1 W71       0.132500
     47 H6B          1.6790    -0.1200    -3.3420 ha         1 W71       0.125000
     48 H4A1         1.5370     1.1140   -10.1180 h1         1 W71       0.067700
     49 H4A2         1.8650    -0.6220   -10.3640 h1         1 W71       0.067700
     50 H5A1        -0.7130     0.4380   -10.7540 h1         1 W71       0.060700
     51 H5A2        -0.4570    -1.2210   -10.1280 h1         1 W71       0.060700
@<TRIPOS>BOND
     1     1     2 1   
     2     1     6 1   
     3     2     3 2   
     4     3     4 1   
     5     3     5 1   
     6     4    26 1   
     7     4    27 1   
     8     4    28 1   
     9     5     6 2   
    10     5    29 1   
    11     6     7 1   
    12     7     8 1   
    13     7    30 1   
    14     7    31 1   
    15     8     9 1   
    16     8    32 1   
    17     8    33 1   
    18     9    10 1   
    19     9    34 1   
    20     9    35 1   
    21    10    11 1   
    22    10    36 1   
    23    10    37 1   
    24    11    12 1   
    25    11    38 1   
    26    11    39 1   
    27    12    13 1   
    28    12    40 1   
    29    12    41 1   
    30    13    14 1   
    31    13    42 1   
    32    13    43 1   
    33    14    15 1   
    34    15    16 ar  
    35    15    20 ar  
    36    16    17 ar  
    37    16    44 1   
    38    17    18 ar  
    39    17    45 1   
    40    18    19 ar  
    41    18    21 1   
    42    19    20 ar  
    43    19    46 1   
    44    20    47 1   
    45    21    22 2   
    46    21    25 1   
    47    22    23 1   
    48    23    24 1   
    49    23    48 1   
    50    23    49 1   
    51    24    25 1   
    52    24    50 1   
    53    24    51 1   
@<TRIPOS>SUBSTRUCTURE
     1 W71         1 TEMP              0 ****  ****    0 ROOT
