@<TRIPOS>MOLECULE
W71
   51    53     1     0     0
SMALL
bcc


@<TRIPOS>ATOM
      1 O1          -0.3450     1.0190     8.0860 os         1 W71      -0.122100
      2 N2          -0.8820     0.7870     9.3220 nc         1 W71      -0.366300
      3 C3          -0.4910    -0.4040     9.6730 cd         1 W71       0.344600
      4 C31         -0.8910    -0.9940    10.9780 c3         1 W71      -0.132400
      5 C4           0.3200    -0.9860     8.6630 cd         1 W71      -0.399600
      6 C5           0.3720    -0.0400     7.6950 cc         1 W71       0.295000
      7 C1C          1.0160     0.0090     6.3590 c3         1 W71      -0.116700
      8 C2C          0.0100     0.0270     5.2060 c3         1 W71      -0.073400
      9 C3C          0.6990     0.0230     3.8480 c3         1 W71      -0.075400
     10 C4C         -0.2880     0.0480     2.6880 c3         1 W71      -0.074400
     11 C5C          0.3920     0.0150     1.3250 c3         1 W71      -0.073400
     12 C6C         -0.6060     0.0590     0.1740 c3         1 W71      -0.082400
     13 C7C          0.0870    -0.0240    -1.1690 c3         1 W71       0.142400
     14 O1B         -0.9050     0.0550    -2.1850 os         1 W71      -0.323900
     15 C1B         -0.5340     0.0390    -3.4720 ca         1 W71       0.171100
     16 C2B         -1.5580     0.1800    -4.4130 ca         1 W71      -0.209000
     17 C3B         -1.2720     0.1770    -5.7630 ca         1 W71      -0.044500
     18 C4B          0.0430     0.0320    -6.2130 ca         1 W71      -0.176900
     19 C5B          1.0560    -0.1100    -5.2690 ca         1 W71      -0.044500
     20 C6B          0.7820    -0.1080    -3.9120 ca         1 W71      -0.209000
     21 C2A          0.3710     0.0260    -7.6390 ce         1 W71       0.649200
     22 N3A          1.5300    -0.1120    -8.1340 n2         1 W71      -0.650900
     23 C4A          1.3880    -0.0560    -9.5810 c5         1 W71       0.072800
     24 C5A         -0.1200     0.1400    -9.8160 c5         1 W71       0.092400
     25 O1A         -0.6610     0.1810    -8.4860 os         1 W71      -0.433400
     26 H311        -0.0120    -1.2200    11.5820 hc         1 W71       0.055700
     27 H312        -1.5300    -0.3150    11.5380 hc         1 W71       0.055700
     28 H313        -1.4290    -1.9300    10.8260 hc         1 W71       0.055700
     29 H4           0.7870    -1.9570     8.6640 ha         1 W71       0.169000
     30 H1C1         1.6620     0.8900     6.2960 hc         1 W71       0.063200
     31 H1C2         1.6670    -0.8620     6.2700 hc         1 W71       0.063200
     32 H2C1        -0.6480    -0.8430     5.2860 hc         1 W71       0.051700
     33 H2C2        -0.6310     0.9100     5.2870 hc         1 W71       0.051700
     34 H3C1         1.3690     0.8870     3.7740 hc         1 W71       0.039200
     35 H3C2         1.3360    -0.8640     3.7660 hc         1 W71       0.039200
     36 H4C1        -0.9700    -0.8050     2.7740 hc         1 W71       0.042700
     37 H4C2        -0.9130     0.9440     2.7620 hc         1 W71       0.042700
     38 H5C1         1.0840     0.8600     1.2420 hc         1 W71       0.039700
     39 H5C2         1.0040    -0.8900     1.2480 hc         1 W71       0.039700
     40 H6C1        -1.3140    -0.7700     0.2700 hc         1 W71       0.056700
     41 H6C2        -1.1880     0.9840     0.2290 hc         1 W71       0.056700
     42 H7C1         0.8080     0.7940    -1.2810 h1         1 W71       0.036200
     43 H7C2         0.6410    -0.9670    -1.2500 h1         1 W71       0.036200
     44 H2B         -2.5800     0.2940    -4.0740 ha         1 W71       0.143000
     45 H3B         -2.0860     0.2900    -6.4650 ha         1 W71       0.150500
     46 H5B          2.0800    -0.2230    -5.5990 ha         1 W71       0.150500
     47 H6B          1.6020    -0.2200    -3.2170 ha         1 W71       0.143000
     48 H4A1         1.9820     0.7640    -9.9890 h1         1 W71       0.067700
     49 H4A2         1.7610    -0.9770   -10.0350 h1         1 W71       0.067700
     50 H5A1        -0.3620     1.0740   -10.3230 h1         1 W71       0.060700
     51 H5A2        -0.5830    -0.6850   -10.3570 h1         1 W71       0.060700
@<TRIPOS>BOND
     1     1     2 1   
     2     1     6 1   
     3     2     3 2   
     4     3     4 1   
     5     3     5 1   
     6     4    26 1   
     7     4    27 1   
     8     4    28 1   
     9     5     6 2   
    10     5    29 1   
    11     6     7 1   
    12     7     8 1   
    13     7    30 1   
    14     7    31 1   
    15     8     9 1   
    16     8    32 1   
    17     8    33 1   
    18     9    10 1   
    19     9    34 1   
    20     9    35 1   
    21    10    11 1   
    22    10    36 1   
    23    10    37 1   
    24    11    12 1   
    25    11    38 1   
    26    11    39 1   
    27    12    13 1   
    28    12    40 1   
    29    12    41 1   
    30    13    14 1   
    31    13    42 1   
    32    13    43 1   
    33    14    15 1   
    34    15    16 ar  
    35    15    20 ar  
    36    16    17 ar  
    37    16    44 1   
    38    17    18 ar  
    39    17    45 1   
    40    18    19 ar  
    41    18    21 1   
    42    19    20 ar  
    43    19    46 1   
    44    20    47 1   
    45    21    22 2   
    46    21    25 1   
    47    22    23 1   
    48    23    24 1   
    49    23    48 1   
    50    23    49 1   
    51    24    25 1   
    52    24    50 1   
    53    24    51 1   
@<TRIPOS>SUBSTRUCTURE
     1 W71         1 TEMP              0 ****  ****    0 ROOT
