@<TRIPOS>MOLECULE
W72
   41    41     1     0     0
SMALL
abcg2


@<TRIPOS>ATOM
      1 C1          -4.5260    -0.2360    -0.0510 c5         1 W72       0.159300
      2 O1          -5.7180    -0.0050    -0.7590 oh         1 W72      -0.663000
      3 C2          -4.0010    -1.6850    -0.1010 c5         1 W72       0.130300
      4 O2          -4.0770    -2.2320     1.1980 oh         1 W72      -0.650000
      5 C3          -2.5720    -1.5410    -0.6250 c5         1 W72       0.137800
      6 N4          -2.2190    -0.1610    -0.3430 n3         1 W72      -0.733600
      7 C5          -3.4070     0.6120    -0.6570 c5         1 W72       0.192500
      8 C6          -3.3700     2.0380    -0.1430 c3         1 W72       0.168600
      9 O6          -3.0990     2.0400     1.2370 oh         1 W72      -0.643000
     10 C7          -0.9700     0.2740    -0.9240 c3         1 W72       0.125800
     11 C8           0.1910    -0.2110    -0.0510 c3         1 W72       0.139300
     12 O8          -0.1300     0.0310     1.3000 oh         1 W72      -0.720000
     13 C9           1.4880     0.5210    -0.4170 c3         1 W72       0.137300
     14 O9           1.4330     1.8570     0.0210 oh         1 W72      -0.716000
     15 C10          2.7420    -0.2200     0.0600 c3         1 W72       0.153300
     16 O10          2.8460    -0.2650     1.4640 oh         1 W72      -0.713000
     17 C11          4.0370     0.3280    -0.5450 c3         1 W72      -0.010700
     18 O11          4.4090     1.5410     0.0620 oh         1 W72      -0.764000
     19 C12          5.1960    -0.6860    -0.3780 c          1 W72       0.698000
     20 O12          5.0370    -1.8290    -0.8290 o          1 W72      -0.717500
     21 O13          6.2090    -0.2260     0.1970 o          1 W72      -0.717500
     22 H1          -4.6410     0.0300     1.0070 h1         1 W72       0.079700
     23 HO1         -6.4460    -0.3830    -0.2580 ho         1 W72       0.446000
     24 H2          -4.5980    -2.2720    -0.8080 h1         1 W72       0.035700
     25 HO2         -3.7950    -3.1510     1.1530 ho         1 W72       0.444000
     26 H31         -1.8810    -2.2440    -0.1550 h1         1 W72       0.047700
     27 H32         -2.5520    -1.7380    -1.7090 h1         1 W72       0.047700
     28 H5          -3.5750     0.6680    -1.7490 h1         1 W72       0.039700
     29 H61         -4.3400     2.4970    -0.3770 h1         1 W72       0.023700
     30 H62         -2.6190     2.6120    -0.7020 h1         1 W72       0.023700
     31 HO6         -3.0940     2.9530     1.5370 ho         1 W72       0.439000
     32 H71         -0.8380    -0.0750    -1.9590 h1         1 W72       0.045700
     33 H72         -0.9500     1.3650    -0.9480 h1         1 W72       0.045700
     34 H8           0.3440    -1.2860    -0.2280 h1         1 W72       0.042700
     35 HO8         -1.1030     0.0910     1.3060 ho         1 W72       0.530000
     36 H9           1.5430     0.5370    -1.5140 h1         1 W72       0.053700
     37 HO9          1.0220     1.8370     0.8940 ho         1 W72       0.510000
     38 H10          2.6400    -1.2520    -0.2900 h1         1 W72       0.079700
     39 HO10         3.2090     0.5860     1.7380 ho         1 W72       0.508000
     40 H11          3.8800     0.4650    -1.6260 h1         1 W72       0.027700
     41 HO11         5.3140     1.3340     0.3690 ho         1 W72       0.535000
@<TRIPOS>BOND
     1     1     2 1   
     2     1     3 1   
     3     1     7 1   
     4     1    22 1   
     5     2    23 1   
     6     3     4 1   
     7     3     5 1   
     8     3    24 1   
     9     4    25 1   
    10     5     6 1   
    11     5    26 1   
    12     5    27 1   
    13     6     7 1   
    14     6    10 1   
    15     7     8 1   
    16     7    28 1   
    17     8     9 1   
    18     8    29 1   
    19     8    30 1   
    20     9    31 1   
    21    10    11 1   
    22    10    32 1   
    23    10    33 1   
    24    11    12 1   
    25    11    13 1   
    26    11    34 1   
    27    12    35 1   
    28    13    14 1   
    29    13    15 1   
    30    13    36 1   
    31    14    37 1   
    32    15    16 1   
    33    15    17 1   
    34    15    38 1   
    35    16    39 1   
    36    17    18 1   
    37    17    19 1   
    38    17    40 1   
    39    18    41 1   
    40    19    20 1   
    41    19    21 1   
@<TRIPOS>SUBSTRUCTURE
     1 W72         1 TEMP              0 ****  ****    0 ROOT
