@<TRIPOS>MOLECULE
W72
   41    41     1     0     0
SMALL
No Charge or Current Charge


@<TRIPOS>ATOM
      1 C1          -4.5570    -0.2950     0.0090 c5         1 W72       0.159300
      2 O1          -5.9080    -0.1180    -0.4580 oh         1 W72      -0.663000
      3 C2          -4.0510    -1.7550    -0.2010 c5         1 W72       0.130300
      4 O2          -4.5680    -2.6620     0.7860 oh         1 W72      -0.650000
      5 C3          -2.4890    -1.5910    -0.1770 c5         1 W72       0.137800
      6 N4          -2.2410    -0.1130    -0.1900 n3         1 W72      -0.733600
      7 C5          -3.4740     0.4790    -0.8010 c5         1 W72       0.192500
      8 C6          -3.6120     2.0360    -0.7180 c3         1 W72       0.168600
      9 O6          -3.5080     2.5320     0.6320 oh         1 W72      -0.643000
     10 C7          -0.9320     0.3160    -0.7700 c3         1 W72       0.125800
     11 C8           0.2650    -0.1330     0.1070 c3         1 W72       0.139300
     12 O8          -0.1910     0.0140     1.4580 oh         1 W72      -0.720000
     13 C9           1.6000     0.6330    -0.1950 c3         1 W72       0.137300
     14 O9           1.4850     2.0320     0.1180 oh         1 W72      -0.716000
     15 C10          2.8460     0.0650     0.5670 c3         1 W72       0.153300
     16 O10          2.9240     0.6190     1.8900 oh         1 W72      -0.713000
     17 C11          4.2150     0.4270    -0.0760 c3         1 W72      -0.010700
     18 O11          5.2560     0.3600     0.9570 oh         1 W72      -0.764000
     19 C12          4.5690    -0.4710    -1.3230 c          1 W72       0.698000
     20 O12          3.6840    -1.0840    -1.9020 o          1 W72      -0.717500
     21 O13          5.7580    -0.6170    -1.5730 o          1 W72      -0.717500
     22 H1          -4.4870    -0.0230     1.0720 h1         1 W72       0.079700
     23 HO1         -6.4370    -0.8190    -0.0160 ho         1 W72       0.446000
     24 H2          -4.3500    -2.0990    -1.2020 h1         1 W72       0.035700
     25 HO2         -4.2210    -3.5560     0.5670 ho         1 W72       0.444000
     26 H31         -2.0410    -2.0600     0.7100 h1         1 W72       0.047700
     27 H32         -2.0530    -2.0760    -1.0620 h1         1 W72       0.047700
     28 H5          -3.5360     0.2090    -1.8650 h1         1 W72       0.039700
     29 H61         -4.5800     2.3220    -1.1490 h1         1 W72       0.023700
     30 H62         -2.8340     2.4900    -1.3450 h1         1 W72       0.023700
     31 HO6         -3.5350     3.5120     0.5780 ho         1 W72       0.439000
     32 H71         -0.8070    -0.0800    -1.7870 h1         1 W72       0.045700
     33 H72         -0.9060     1.4110    -0.8470 h1         1 W72       0.045700
     34 H8           0.4370    -1.1980    -0.1000 h1         1 W72       0.042700
     35 HO8         -1.1730     0.0600     1.2960 ho         1 W72       0.530000
     36 H9           1.7810     0.5180    -1.2720 h1         1 W72       0.053700
     37 HO9          1.7690     2.0460     1.0660 ho         1 W72       0.510000
     38 H10          2.7650    -1.0310     0.6150 h1         1 W72       0.079700
     39 HO10         3.9170     0.6700     1.9780 ho         1 W72       0.508000
     40 H11          4.1560     1.4560    -0.4550 h1         1 W72       0.027700
     41 HO11         6.0830     0.0910     0.4770 ho         1 W72       0.535000
@<TRIPOS>BOND
     1     1     2 1   
     2     1     3 1   
     3     1     7 1   
     4     1    22 1   
     5     2    23 1   
     6     3     4 1   
     7     3     5 1   
     8     3    24 1   
     9     4    25 1   
    10     5     6 1   
    11     5    26 1   
    12     5    27 1   
    13     6     7 1   
    14     6    10 1   
    15     7     8 1   
    16     7    28 1   
    17     8     9 1   
    18     8    29 1   
    19     8    30 1   
    20     9    31 1   
    21    10    11 1   
    22    10    32 1   
    23    10    33 1   
    24    11    12 1   
    25    11    13 1   
    26    11    34 1   
    27    12    35 1   
    28    13    14 1   
    29    13    15 1   
    30    13    36 1   
    31    14    37 1   
    32    15    16 1   
    33    15    17 1   
    34    15    38 1   
    35    16    39 1   
    36    17    18 1   
    37    17    19 1   
    38    17    40 1   
    39    18    41 1   
    40    19    20 1   
    41    19    21 1   
@<TRIPOS>SUBSTRUCTURE
     1 W72         1 TEMP              0 ****  ****    0 ROOT
