@<TRIPOS>MOLECULE
W73
   42    45     1     0     0
SMALL
abcg2


@<TRIPOS>ATOM
      1 OAJ         -4.0450     3.1340     0.5700 o          1 W73      -0.686500
      2 CAI         -3.0560     2.3850     0.4720 c          1 W73       0.716200
      3 OAK         -1.8580     2.6880     0.5110 o          1 W73      -0.686500
      4 C4          -3.4100     0.9010     0.2520 cc         1 W73       0.030400
      5 N3          -4.7430     0.7310    -0.0050 ns         1 W73      -0.493600
      6 C2          -5.3510    -0.4540    -0.2650 c          1 W73       0.605000
      7 O2          -6.5420    -0.5720    -0.4870 o          1 W73      -0.608000
      8 N1          -4.4840    -1.5150    -0.2600 ns         1 W73      -0.470500
      9 C6          -3.1240    -1.4750    -0.0150 c          1 W73       0.579200
     10 O6          -2.4770    -2.5100    -0.0660 o          1 W73      -0.596000
     11 C5          -2.5690    -0.1620     0.2850 cd         1 W73      -0.297400
     12 CAL         -1.0960    -0.1130     0.5610 c3         1 W73       0.018800
     13 CAM         -0.2800     0.0580    -0.7290 c3         1 W73      -0.037100
     14 CAN          1.2030     0.0700    -0.4860 ca         1 W73      -0.038300
     15 CAS          1.9270    -1.1500    -0.2160 ca         1 W73      -0.023000
     16 CAU          1.2700    -2.3980    -0.1970 ca         1 W73      -0.087000
     17 CAT          1.9530    -3.5620     0.0650 ca         1 W73      -0.120000
     18 CAW          3.3270    -3.5210     0.3190 ca         1 W73      -0.119000
     19 CAV          3.9920    -2.3190     0.3010 ca         1 W73      -0.112000
     20 CAR          3.3210    -1.1110     0.0340 ca         1 W73      -0.027000
     21 CAQ          4.0190     0.1590     0.0070 ca         1 W73      -0.029000
     22 CBA          5.4050     0.2800     0.2260 ca         1 W73      -0.100000
     23 CAZ          6.0270     1.5060     0.1880 ca         1 W73      -0.126000
     24 CAY          5.2890     2.6690    -0.0710 ca         1 W73      -0.119000
     25 CAX          3.9370     2.5780    -0.2910 ca         1 W73      -0.096000
     26 CAP          3.2820     1.3320    -0.2570 ca         1 W73      -0.020000
     27 CAO          1.8770     1.2460    -0.4950 ca         1 W73      -0.110000
     28 H2          -4.8830    -2.4210    -0.4660 hn         1 W73       0.319500
     29 H4          -0.8610     0.7060     1.2350 hc         1 W73       0.058200
     30 H5          -0.8070    -1.0370     1.0630 hc         1 W73       0.058200
     31 H6          -0.5430    -0.7260    -1.4430 hc         1 W73       0.056200
     32 H7          -0.5720     1.0040    -1.1830 hc         1 W73       0.056200
     33 H8           0.2060    -2.4530    -0.3810 ha         1 W73       0.147000
     34 H9           1.4250    -4.5070     0.0760 ha         1 W73       0.110000
     35 H10          3.8690    -4.4340     0.5300 ha         1 W73       0.099000
     36 H11          5.0550    -2.3170     0.4970 ha         1 W73       0.100000
     37 H12          6.0070    -0.5960     0.4220 ha         1 W73       0.103000
     38 H13          7.0950     1.5710     0.3550 ha         1 W73       0.099000
     39 H14          5.7830     3.6310    -0.0990 ha         1 W73       0.104000
     40 H15          3.3550     3.4680    -0.4990 ha         1 W73       0.117000
     41 H16          1.3400     2.1670    -0.6930 ha         1 W73       0.134000
     42 H17         -5.3010     1.5770     0.0250 hn         1 W73       0.489000
@<TRIPOS>BOND
     1     1     2 1   
     2     2     3 1   
     3     2     4 1   
     4     4     5 1   
     5     4    11 2   
     6     5     6 1   
     7     5    42 1   
     8     6     7 2   
     9     6     8 1   
    10     8     9 1   
    11     8    28 1   
    12     9    10 2   
    13     9    11 1   
    14    11    12 1   
    15    12    13 1   
    16    12    29 1   
    17    12    30 1   
    18    13    14 1   
    19    13    31 1   
    20    13    32 1   
    21    14    15 ar  
    22    14    27 ar  
    23    15    16 ar  
    24    15    20 ar  
    25    16    17 ar  
    26    16    33 1   
    27    17    18 ar  
    28    17    34 1   
    29    18    19 ar  
    30    18    35 1   
    31    19    20 ar  
    32    19    36 1   
    33    20    21 ar  
    34    21    22 ar  
    35    21    26 ar  
    36    22    23 ar  
    37    22    37 1   
    38    23    24 ar  
    39    23    38 1   
    40    24    25 ar  
    41    24    39 1   
    42    25    26 ar  
    43    25    40 1   
    44    26    27 ar  
    45    27    41 1   
@<TRIPOS>SUBSTRUCTURE
     1 W73         1 TEMP              0 ****  ****    0 ROOT
