@<TRIPOS>MOLECULE
W73
   42    45     1     0     0
SMALL
No Charge or Current Charge


@<TRIPOS>ATOM
      1 OAJ         -3.9440     3.3060     0.1480 o          1 W73      -0.686500
      2 CAI         -3.0500     2.4730     0.2670 c          1 W73       0.716200
      3 OAK         -1.8860     2.8050     0.4340 o          1 W73      -0.686500
      4 C4          -3.4460     1.0050     0.1810 cc         1 W73       0.030400
      5 N3          -4.8000     0.7700    -0.0510 ns         1 W73      -0.493600
      6 C2          -5.3960    -0.4380    -0.1920 c          1 W73       0.605000
      7 O2          -6.5870    -0.5630    -0.3950 o          1 W73      -0.608000
      8 N1          -4.5500    -1.4880    -0.0910 ns         1 W73      -0.470500
      9 C6          -3.2080    -1.4720     0.1370 c          1 W73       0.579200
     10 O6          -2.5820    -2.5190     0.1940 o          1 W73      -0.596000
     11 C5          -2.6120    -0.1100     0.2950 cd         1 W73      -0.297400
     12 CAL         -1.1130    -0.0950     0.5660 c3         1 W73       0.018800
     13 CAM         -0.2830     0.0100    -0.7320 c3         1 W73      -0.037100
     14 CAN          1.2260    -0.0060    -0.4670 ca         1 W73      -0.038300
     15 CAS          1.9660    -1.1990    -0.2450 ca         1 W73      -0.023000
     16 CAU          1.3210    -2.4610    -0.2530 ca         1 W73      -0.087000
     17 CAT          2.0410    -3.6420    -0.0370 ca         1 W73      -0.120000
     18 CAW          3.4180    -3.5850     0.1910 ca         1 W73      -0.119000
     19 CAV          4.0770    -2.3480     0.2070 ca         1 W73      -0.112000
     20 CAR          3.3720    -1.1340    -0.0080 ca         1 W73      -0.027000
     21 CAQ          4.0300     0.1350     0.0100 ca         1 W73      -0.029000
     22 CBA          5.4240     0.2840     0.2380 ca         1 W73      -0.100000
     23 CAZ          6.0250     1.5540     0.2490 ca         1 W73      -0.126000
     24 CAY          5.2540     2.7030     0.0340 ca         1 W73      -0.119000
     25 CAX          3.8770     2.5790    -0.1940 ca         1 W73      -0.096000
     26 CAP          3.2680     1.3090    -0.2070 ca         1 W73      -0.020000
     27 CAO          1.8890     1.2300    -0.4400 ca         1 W73      -0.110000
     28 H2          -4.9660    -2.3980    -0.1970 hn         1 W73       0.319500
     29 H4          -0.8400     0.7230     1.2410 hc         1 W73       0.058200
     30 H5          -0.8070    -0.9940     1.1130 hc         1 W73       0.058200
     31 H6          -0.5690    -0.7900    -1.4250 hc         1 W73       0.056200
     32 H7          -0.5640     0.9360    -1.2480 hc         1 W73       0.056200
     33 H8           0.2520    -2.5520    -0.4220 ha         1 W73       0.147000
     34 H9           1.5300    -4.6020    -0.0470 ha         1 W73       0.110000
     35 H10          3.9790    -4.5020     0.3590 ha         1 W73       0.099000
     36 H11          5.1440    -2.3720     0.3910 ha         1 W73       0.100000
     37 H12          6.0760    -0.5630     0.4120 ha         1 W73       0.103000
     38 H13          7.0940     1.6460     0.4260 ha         1 W73       0.099000
     39 H14          5.7210     3.6850     0.0430 ha         1 W73       0.104000
     40 H15          3.2830     3.4750    -0.3610 ha         1 W73       0.117000
     41 H16          1.3220     2.1450    -0.6000 ha         1 W73       0.134000
     42 H17         -5.4250     1.5670    -0.1330 hn         1 W73       0.489000
@<TRIPOS>BOND
     1     1     2 1   
     2     2     3 1   
     3     2     4 1   
     4     4     5 1   
     5     4    11 2   
     6     5     6 1   
     7     5    42 1   
     8     6     7 2   
     9     6     8 1   
    10     8     9 1   
    11     8    28 1   
    12     9    10 2   
    13     9    11 1   
    14    11    12 1   
    15    12    13 1   
    16    12    29 1   
    17    12    30 1   
    18    13    14 1   
    19    13    31 1   
    20    13    32 1   
    21    14    15 ar  
    22    14    27 ar  
    23    15    16 ar  
    24    15    20 ar  
    25    16    17 ar  
    26    16    33 1   
    27    17    18 ar  
    28    17    34 1   
    29    18    19 ar  
    30    18    35 1   
    31    19    20 ar  
    32    19    36 1   
    33    20    21 ar  
    34    21    22 ar  
    35    21    26 ar  
    36    22    23 ar  
    37    22    37 1   
    38    23    24 ar  
    39    23    38 1   
    40    24    25 ar  
    41    24    39 1   
    42    25    26 ar  
    43    25    40 1   
    44    26    27 ar  
    45    27    41 1   
@<TRIPOS>SUBSTRUCTURE
     1 W73         1 TEMP              0 ****  ****    0 ROOT
