@<TRIPOS>MOLECULE
W74
   34    35     1     0     0
SMALL
bcc


@<TRIPOS>ATOM
      1 OAJ         -3.9700    -3.1510     0.1520 o          1 W74      -0.793800
      2 CAI         -3.0890    -2.2730     0.1640 c          1 W74       0.929800
      3 OAK         -1.8620    -2.4190     0.2010 o          1 W74      -0.793800
      4 C4          -3.6390    -0.8330     0.1060 cc         1 W74       0.029400
      5 N3          -4.9780    -0.8140    -0.1750 ns         1 W74      -0.447100
      6 C2          -5.7370     0.3010    -0.3200 c          1 W74       0.815500
      7 O2          -6.9280     0.2840    -0.5720 o          1 W74      -0.682500
      8 N1          -5.0260     1.4610    -0.1570 ns         1 W74      -0.605500
      9 C6          -3.6800     1.5760     0.1380 c          1 W74       0.721700
     10 O6          -3.1800     2.6840     0.2440 o          1 W74      -0.664500
     11 C5          -2.9540     0.3220     0.2940 cd         1 W74      -0.298400
     12 CAL         -1.4920     0.4310     0.6070 c3         1 W74       0.020800
     13 CAM         -0.6390     0.5590    -0.6620 c3         1 W74      -0.036100
     14 CAN          0.8300     0.5480    -0.3530 ca         1 W74      -0.039300
     15 CAO          1.5860     1.7160    -0.3630 ca         1 W74      -0.120000
     16 CAP          2.9400     1.7000    -0.0540 ca         1 W74      -0.125500
     17 CAQ          3.5370     0.4960     0.2720 ca         1 W74       0.060100
     18 OAT          4.8830     0.4760     0.6360 os         1 W74      -0.380900
     19 CAU          5.7840     0.2870    -0.3330 c3         1 W74       0.851700
     20 FAW          6.9840     0.2870     0.2260 f          1 W74      -0.238300
     21 FAX          5.6210    -0.8730    -0.9740 f          1 W74      -0.238300
     22 FAV          5.7560     1.2440    -1.2630 f          1 W74      -0.238300
     23 CAR          2.8110    -0.6830     0.3030 ca         1 W74      -0.125500
     24 CAS          1.4610    -0.6470    -0.0080 ca         1 W74      -0.120000
     25 H2          -5.5420     2.3230    -0.2750 hn         1 W74       0.319500
     26 H4          -1.3280     1.3090     1.2360 hc         1 W74       0.057200
     27 H5          -1.1640    -0.4360     1.1720 hc         1 W74       0.057200
     28 H6          -0.8760    -0.2710    -1.3290 hc         1 W74       0.056700
     29 H7          -0.9030     1.4790    -1.1870 hc         1 W74       0.056700
     30 H8           1.1180     2.6570    -0.6230 ha         1 W74       0.156500
     31 H9           3.5130     2.6190    -0.0550 ha         1 W74       0.141000
     32 H10          3.2860    -1.6150     0.5790 ha         1 W74       0.141000
     33 H11          0.8850    -1.5640     0.0150 ha         1 W74       0.156500
     34 H12         -5.4140    -1.7250    -0.2660 hn         1 W74       0.376500
@<TRIPOS>BOND
     1     1     2 1   
     2     2     3 1   
     3     2     4 1   
     4     4     5 1   
     5     4    11 2   
     6     5     6 1   
     7     5    34 1   
     8     6     7 2   
     9     6     8 1   
    10     8     9 1   
    11     8    25 1   
    12     9    10 2   
    13     9    11 1   
    14    11    12 1   
    15    12    13 1   
    16    12    26 1   
    17    12    27 1   
    18    13    14 1   
    19    13    28 1   
    20    13    29 1   
    21    14    15 ar  
    22    14    24 ar  
    23    15    16 ar  
    24    15    30 1   
    25    16    17 ar  
    26    16    31 1   
    27    17    18 1   
    28    17    23 ar  
    29    18    19 1   
    30    19    20 1   
    31    19    21 1   
    32    19    22 1   
    33    23    24 ar  
    34    23    32 1   
    35    24    33 1   
@<TRIPOS>SUBSTRUCTURE
     1 W74         1 TEMP              0 ****  ****    0 ROOT
