@<TRIPOS>MOLECULE
W74
   34    35     1     0     0
SMALL
No Charge or Current Charge


@<TRIPOS>ATOM
      1 OAJ         -3.8970    -3.2190    -0.4400 o          1 W74      -0.688500
      2 CAI         -3.1020    -2.3190    -0.1890 c          1 W74       0.719200
      3 OAK         -1.9000    -2.5290    -0.1190 o          1 W74      -0.688500
      4 C4          -3.6700    -0.9210     0.0160 cc         1 W74       0.029400
      5 N3          -5.0520    -0.8160    -0.1280 ns         1 W74      -0.493600
      6 C2          -5.7910     0.3140    -0.0180 c          1 W74       0.606000
      7 O2          -6.9980     0.3270    -0.1600 o          1 W74      -0.607000
      8 N1          -5.0680     1.4230     0.2580 ns         1 W74      -0.471500
      9 C6          -3.7240     1.5320     0.4400 c          1 W74       0.579200
     10 O6          -3.2230     2.6190     0.6800 o          1 W74      -0.589000
     11 C5          -2.9660     0.2480     0.3170 cd         1 W74      -0.298400
     12 CAL         -1.4630     0.3660     0.5350 c3         1 W74       0.020800
     13 CAM         -0.6930     0.5900    -0.7820 c3         1 W74      -0.036100
     14 CAN          0.8110     0.6850    -0.5610 ca         1 W74      -0.039300
     15 CAO          1.4360     1.9390    -0.4380 ca         1 W74      -0.102000
     16 CAP          2.8240     2.0210    -0.2290 ca         1 W74      -0.107500
     17 CAQ          3.6040     0.8550    -0.1390 ca         1 W74       0.060100
     18 OAT          4.9630     1.0150     0.0680 os         1 W74      -0.404100
     19 CAU          5.8990    -0.0770     0.1830 c3         1 W74       0.511000
     20 FAW          7.1520     0.3890     0.3810 f          1 W74      -0.117000
     21 FAX          5.6110    -0.8860     1.2300 f          1 W74      -0.117000
     22 FAV          5.9340    -0.8380    -0.9350 f          1 W74      -0.117000
     23 CAR          2.9770    -0.4060    -0.2600 ca         1 W74      -0.107500
     24 CAS          1.5880    -0.4850    -0.4690 ca         1 W74      -0.102000
     25 H2          -5.5930     2.2790     0.3410 hn         1 W74       0.319500
     26 H4          -1.2280     1.1930     1.2180 hc         1 W74       0.057200
     27 H5          -1.0690    -0.5170     1.0480 hc         1 W74       0.057200
     28 H6          -0.9170    -0.2300    -1.4750 hc         1 W74       0.056700
     29 H7          -1.0650     1.5030    -1.2630 hc         1 W74       0.056700
     30 H8           0.8480     2.8520    -0.5020 ha         1 W74       0.138500
     31 H9           3.2990     2.9940    -0.1350 ha         1 W74       0.123000
     32 H10          3.5400    -1.3320    -0.1960 ha         1 W74       0.123000
     33 H11          1.1120    -1.4600    -0.5590 ha         1 W74       0.138500
     34 H12         -5.5840    -1.6540    -0.3430 hn         1 W74       0.490000
@<TRIPOS>BOND
     1     1     2 1   
     2     2     3 1   
     3     2     4 1   
     4     4     5 1   
     5     4    11 2   
     6     5     6 1   
     7     5    34 1   
     8     6     7 2   
     9     6     8 1   
    10     8     9 1   
    11     8    25 1   
    12     9    10 2   
    13     9    11 1   
    14    11    12 1   
    15    12    13 1   
    16    12    26 1   
    17    12    27 1   
    18    13    14 1   
    19    13    28 1   
    20    13    29 1   
    21    14    15 ar  
    22    14    24 ar  
    23    15    16 ar  
    24    15    30 1   
    25    16    17 ar  
    26    16    31 1   
    27    17    18 1   
    28    17    23 ar  
    29    18    19 1   
    30    19    20 1   
    31    19    21 1   
    32    19    22 1   
    33    23    24 ar  
    34    23    32 1   
    35    24    33 1   
@<TRIPOS>SUBSTRUCTURE
     1 W74         1 TEMP              0 ****  ****    0 ROOT
