@<TRIPOS>MOLECULE
W75
   38    39     1     0     0
SMALL
abcg2


@<TRIPOS>ATOM
      1 OAJ         -3.4330    -3.0690    -0.2150 o          1 W75      -0.687500
      2 CAI         -2.4890    -2.2620    -0.1310 c          1 W75       0.717200
      3 OAK         -1.2760    -2.4960    -0.1740 o          1 W75      -0.687500
      4 C4          -2.9310    -0.7940     0.0310 cc         1 W75       0.027400
      5 N3          -4.2760    -0.6440    -0.1720 ns         1 W75      -0.494600
      6 C2          -4.9540     0.5310    -0.1270 c          1 W75       0.605000
      7 O2          -6.1520     0.6300    -0.3160 o          1 W75      -0.610000
      8 N1          -4.1510     1.6050     0.1530 ns         1 W75      -0.471500
      9 C6          -2.7880     1.5850     0.3840 c          1 W75       0.577200
     10 O6          -2.2010     2.6320     0.6070 o          1 W75      -0.587000
     11 C5          -2.1530     0.2740     0.3330 cd         1 W75      -0.294400
     12 CAL         -0.6730     0.2400     0.5750 c3         1 W75       0.019800
     13 CAM          0.1260     0.4560    -0.7180 c3         1 W75      -0.035100
     14 CAN          1.6060     0.3500    -0.4840 ca         1 W75       0.008700
     15 CAS          2.3920     1.4910    -0.3920 ca         1 W75      -0.173000
     16 CAO          2.1850    -0.9040    -0.3260 ca         1 W75      -0.173000
     17 CAP          3.5500    -1.0150    -0.0790 ca         1 W75       0.157600
     18 OAU          4.0310    -2.2660     0.0580 os         1 W75      -0.342600
     19 CAW          5.4110    -2.4470     0.3020 c3         1 W75       0.155400
     20 CAQ          4.3490     0.1260     0.0140 ca         1 W75      -0.299000
     21 CAR          3.7590     1.3780    -0.1440 ca         1 W75       0.157600
     22 OAT          4.4450     2.5360    -0.0710 os         1 W75      -0.342600
     23 CAV          5.8400     2.4900     0.1500 c3         1 W75       0.155400
     24 H2          -4.6040     2.5090     0.1790 hn         1 W75       0.318500
     25 H4          -0.4130     1.0240     1.2880 hc         1 W75       0.058700
     26 H5          -0.3870    -0.7090     1.0170 hc         1 W75       0.058700
     27 H6          -0.1870    -0.2930    -1.4470 hc         1 W75       0.056200
     28 H7          -0.1160     1.4350    -1.1380 hc         1 W75       0.056200
     29 H8           1.9510     2.4730    -0.5190 ha         1 W75       0.145500
     30 H9           1.5740    -1.7970    -0.3940 ha         1 W75       0.145500
     31 H10          6.0250    -2.0610    -0.5170 h1         1 W75       0.030700
     32 H11          5.7280    -1.9710     1.2330 h1         1 W75       0.030700
     33 H12          5.5720    -3.5190     0.3840 h1         1 W75       0.030700
     34 H13          5.4090     0.0380     0.2040 ha         1 W75       0.105000
     35 H14          6.3630     1.9530    -0.6460 h1         1 W75       0.030700
     36 H15          6.1850     3.5210     0.1600 h1         1 W75       0.030700
     37 H16          6.0890     2.0280     1.1090 h1         1 W75       0.030700
     38 H17         -4.7850    -1.5000    -0.3560 hn         1 W75       0.488000
@<TRIPOS>BOND
     1     1     2 1   
     2     2     3 1   
     3     2     4 1   
     4     4     5 1   
     5     4    11 2   
     6     5     6 1   
     7     5    38 1   
     8     6     7 2   
     9     6     8 1   
    10     8     9 1   
    11     8    24 1   
    12     9    10 2   
    13     9    11 1   
    14    11    12 1   
    15    12    13 1   
    16    12    25 1   
    17    12    26 1   
    18    13    14 1   
    19    13    27 1   
    20    13    28 1   
    21    14    15 ar  
    22    14    16 ar  
    23    15    21 ar  
    24    15    29 1   
    25    16    17 ar  
    26    16    30 1   
    27    17    18 1   
    28    17    20 ar  
    29    18    19 1   
    30    19    31 1   
    31    19    32 1   
    32    19    33 1   
    33    20    21 ar  
    34    20    34 1   
    35    21    22 1   
    36    22    23 1   
    37    23    35 1   
    38    23    36 1   
    39    23    37 1   
@<TRIPOS>SUBSTRUCTURE
     1 W75         1 TEMP              0 ****  ****    0 ROOT
