@<TRIPOS>MOLECULE
W75
   38    39     1     0     0
SMALL
No Charge or Current Charge


@<TRIPOS>ATOM
      1 OAJ         -3.5330    -3.0870    -0.3590 o          1 W75      -0.687500
      2 CAI         -2.6420    -2.2790    -0.1180 c          1 W75       0.717200
      3 OAK         -1.4750    -2.6270    -0.0110 o          1 W75      -0.687500
      4 C4          -3.0440    -0.8170     0.0260 cc         1 W75       0.027400
      5 N3          -4.4000    -0.5540    -0.1560 ns         1 W75      -0.494600
      6 C2          -5.0020     0.6580    -0.1030 c          1 W75       0.605000
      7 O2          -6.1950     0.8080    -0.2760 o          1 W75      -0.610000
      8 N1          -4.1580     1.6830     0.1550 ns         1 W75      -0.471500
      9 C6          -2.8140     1.6380     0.3670 c          1 W75       0.577200
     10 O6          -2.1920     2.6660     0.5840 o          1 W75      -0.587000
     11 C5          -2.2120     0.2710     0.3060 cd         1 W75      -0.294400
     12 CAL         -0.7110     0.2180     0.5580 c3         1 W75       0.019800
     13 CAM          0.1090     0.3040    -0.7460 c3         1 W75      -0.035100
     14 CAN          1.6080     0.2430    -0.4880 ca         1 W75       0.008700
     15 CAS          2.3630     1.4240    -0.3820 ca         1 W75      -0.173000
     16 CAO          2.2530    -0.9980    -0.3450 ca         1 W75      -0.173000
     17 CAP          3.6330    -1.0650    -0.1030 ca         1 W75       0.157600
     18 OAU          4.2010    -2.3160     0.0270 os         1 W75      -0.342600
     19 CAW          5.6050    -2.5010     0.2770 c3         1 W75       0.155400
     20 CAQ          4.3850     0.1240     0.0000 ca         1 W75      -0.299000
     21 CAR          3.7440     1.3720    -0.1400 ca         1 W75       0.157600
     22 OAT          4.4230     2.5700    -0.0480 os         1 W75      -0.342600
     23 CAV          5.8380     2.6340     0.1990 c3         1 W75       0.155400
     24 H2          -4.5790     2.5970     0.1960 hn         1 W75       0.318500
     25 H4          -0.3940     1.0350     1.2190 hc         1 W75       0.058700
     26 H5          -0.4340    -0.6870     1.1090 hc         1 W75       0.058700
     27 H6          -0.1890    -0.5130    -1.4140 hc         1 W75       0.056200
     28 H7          -0.1480     1.2330    -1.2690 hc         1 W75       0.056200
     29 H8           1.8780     2.3910    -0.4860 ha         1 W75       0.145500
     30 H9           1.6800    -1.9190    -0.4200 ha         1 W75       0.145500
     31 H10          6.2050    -2.0700    -0.5340 h1         1 W75       0.030700
     32 H11          5.8970    -2.0280     1.2230 h1         1 W75       0.030700
     33 H12          5.8400    -3.5700     0.3440 h1         1 W75       0.030700
     34 H13          5.4510     0.0780     0.1870 ha         1 W75       0.105000
     35 H14          6.3960     2.1270    -0.5980 h1         1 W75       0.030700
     36 H15          6.1700     3.6800     0.2340 h1         1 W75       0.030700
     37 H16          6.0890     2.1660     1.1590 h1         1 W75       0.030700
     38 H17         -5.0240    -1.3310    -0.3570 hn         1 W75       0.488000
@<TRIPOS>BOND
     1     1     2 1   
     2     2     3 1   
     3     2     4 1   
     4     4     5 1   
     5     4    11 2   
     6     5     6 1   
     7     5    38 1   
     8     6     7 2   
     9     6     8 1   
    10     8     9 1   
    11     8    24 1   
    12     9    10 2   
    13     9    11 1   
    14    11    12 1   
    15    12    13 1   
    16    12    25 1   
    17    12    26 1   
    18    13    14 1   
    19    13    27 1   
    20    13    28 1   
    21    14    15 ar  
    22    14    16 ar  
    23    15    21 ar  
    24    15    29 1   
    25    16    17 ar  
    26    16    30 1   
    27    17    18 1   
    28    17    20 ar  
    29    18    19 1   
    30    19    31 1   
    31    19    32 1   
    32    19    33 1   
    33    20    21 ar  
    34    20    34 1   
    35    21    22 1   
    36    22    23 1   
    37    23    35 1   
    38    23    36 1   
    39    23    37 1   
@<TRIPOS>SUBSTRUCTURE
     1 W75         1 TEMP              0 ****  ****    0 ROOT
