@<TRIPOS>MOLECULE
W76
   34    35     1     0     0
SMALL
abcg2


@<TRIPOS>ATOM
      1 OAJ         -2.4390    -3.1960    -0.0700 o          1 W76      -0.687500
      2 CAI         -1.6310    -2.2520    -0.0000 c          1 W76       0.717200
      3 OAK         -0.3960    -2.3000    -0.0120 o          1 W76      -0.687500
      4 C4          -2.2950    -0.8640     0.0940 cc         1 W76       0.027400
      5 N3          -3.6450    -0.9330    -0.1200 ns         1 W76      -0.493600
      6 C2          -4.4970     0.1230    -0.1260 c          1 W76       0.605000
      7 O2          -5.6960     0.0280    -0.3190 o          1 W76      -0.611000
      8 N1          -3.8720     1.3200     0.1060 ns         1 W76      -0.471500
      9 C6          -2.5250     1.5220     0.3420 c          1 W76       0.578200
     10 O6          -2.1100     2.6560     0.5220 o          1 W76      -0.589000
     11 C5          -1.6940     0.3240     0.3500 cd         1 W76      -0.294400
     12 CAL         -0.2300     0.5280     0.5990 c3         1 W76       0.018800
     13 CAM          0.5450     0.7970    -0.6990 c3         1 W76      -0.034100
     14 CAN          2.0210     0.9180    -0.4480 ca         1 W76      -0.024300
     15 CAS          2.7890    -0.2290    -0.3010 ca         1 W76      -0.131000
     16 CAO          2.6330     2.1650    -0.3180 ca         1 W76      -0.149000
     17 CAP          3.9900     2.2440    -0.0510 ca         1 W76      -0.090000
     18 CAQ          4.7640     1.0980     0.0920 ca         1 W76      -0.216000
     19 CAR          4.1570    -0.1500    -0.0340 ca         1 W76       0.125100
     20 OAT          4.8070    -1.3250     0.0860 os         1 W76      -0.337100
     21 CAU          6.1990    -1.3040     0.3260 c3         1 W76       0.153900
     22 H2          -4.4620     2.1420     0.0970 hn         1 W76       0.318500
     23 H4          -0.0980     1.3770     1.2730 hc         1 W76       0.057700
     24 H5           0.1920    -0.3440     1.0900 hc         1 W76       0.057700
     25 H6           0.3550    -0.0230    -1.3930 hc         1 W76       0.054200
     26 H7           0.1700     1.7100    -1.1650 hc         1 W76       0.054200
     27 H8           2.3220    -1.2030    -0.3960 ha         1 W76       0.158000
     28 H9           2.0470     3.0690    -0.4330 ha         1 W76       0.113000
     29 H10          4.4650     3.2120     0.0480 ha         1 W76       0.095000
     30 H11          5.8220     1.1960     0.2940 ha         1 W76       0.100000
     31 H12          6.4460    -0.8150     1.2720 h1         1 W76       0.030367
     32 H13          6.5200    -2.3420     0.3770 h1         1 W76       0.030367
     33 H14          6.7470    -0.8060    -0.4790 h1         1 W76       0.030367
     34 H15         -4.0140    -1.8660    -0.2680 hn         1 W76       0.489000
@<TRIPOS>BOND
     1     1     2 1   
     2     2     3 1   
     3     2     4 1   
     4     4     5 1   
     5     4    11 2   
     6     5     6 1   
     7     5    34 1   
     8     6     7 2   
     9     6     8 1   
    10     8     9 1   
    11     8    22 1   
    12     9    10 2   
    13     9    11 1   
    14    11    12 1   
    15    12    13 1   
    16    12    23 1   
    17    12    24 1   
    18    13    14 1   
    19    13    25 1   
    20    13    26 1   
    21    14    15 ar  
    22    14    16 ar  
    23    15    19 ar  
    24    15    27 1   
    25    16    17 ar  
    26    16    28 1   
    27    17    18 ar  
    28    17    29 1   
    29    18    19 ar  
    30    18    30 1   
    31    19    20 1   
    32    20    21 1   
    33    21    31 1   
    34    21    32 1   
    35    21    33 1   
@<TRIPOS>SUBSTRUCTURE
     1 W76         1 TEMP              0 ****  ****    0 ROOT
