@<TRIPOS>MOLECULE
W76
   34    35     1     0     0
SMALL
No Charge or Current Charge


@<TRIPOS>ATOM
      1 OAJ         -2.5010    -3.2320    -0.3460 o          1 W76      -0.687500
      2 CAI         -1.7550    -2.2910    -0.0980 c          1 W76       0.717200
      3 OAK         -0.5470    -2.4450     0.0140 o          1 W76      -0.687500
      4 C4          -2.3890    -0.9150     0.0500 cc         1 W76       0.027400
      5 N3          -3.7700    -0.8760    -0.1380 ns         1 W76      -0.493600
      6 C2          -4.5610     0.2230    -0.0830 c          1 W76       0.605000
      7 O2          -5.7620     0.1770    -0.2600 o          1 W76      -0.611000
      8 N1          -3.8960     1.3700     0.1830 ns         1 W76      -0.471500
      9 C6          -2.5640     1.5430     0.4010 c          1 W76       0.578200
     10 O6          -2.1190     2.6580     0.6250 o          1 W76      -0.589000
     11 C5          -1.7470     0.2920     0.3370 cd         1 W76      -0.294400
     12 CAL         -0.2580     0.4830     0.5960 c3         1 W76       0.018800
     13 CAM          0.5430     0.7000    -0.7050 c3         1 W76      -0.034100
     14 CAN          2.0350     0.8580    -0.4440 ca         1 W76      -0.024300
     15 CAS          2.8470    -0.2790    -0.2720 ca         1 W76      -0.131000
     16 CAO          2.6140     2.1380    -0.3650 ca         1 W76      -0.149000
     17 CAP          3.9900     2.2800    -0.1200 ca         1 W76      -0.090000
     18 CAQ          4.7970     1.1420     0.0490 ca         1 W76      -0.216000
     19 CAR          4.2240    -0.1460    -0.0260 ca         1 W76       0.125100
     20 OAT          4.9660    -1.2990     0.1330 os         1 W76      -0.337100
     21 CAU          6.3810    -1.2710     0.3890 c3         1 W76       0.153900
     22 H2          -4.4600     2.2030     0.2260 hn         1 W76       0.318500
     23 H4          -0.0790     1.3390     1.2580 hc         1 W76       0.057700
     24 H5           0.1580    -0.3670     1.1480 hc         1 W76       0.057700
     25 H6           0.3700    -0.1470    -1.3810 hc         1 W76       0.054200
     26 H7           0.1520     1.5850    -1.2220 hc         1 W76       0.054200
     27 H8           2.4090    -1.2730    -0.3270 ha         1 W76       0.158000
     28 H9           1.9970     3.0250    -0.4920 ha         1 W76       0.113000
     29 H10          4.4300     3.2730    -0.0600 ha         1 W76       0.095000
     30 H11          5.8580     1.2800     0.2380 ha         1 W76       0.100000
     31 H12          6.5970    -0.7370     1.3230 h1         1 W76       0.030367
     32 H13          6.7700    -2.2920     0.4820 h1         1 W76       0.030367
     33 H14          6.9150    -0.7760    -0.4320 h1         1 W76       0.030367
     34 H15         -4.2580    -1.7430    -0.3440 hn         1 W76       0.489000
@<TRIPOS>BOND
     1     1     2 1   
     2     2     3 1   
     3     2     4 1   
     4     4     5 1   
     5     4    11 2   
     6     5     6 1   
     7     5    34 1   
     8     6     7 2   
     9     6     8 1   
    10     8     9 1   
    11     8    22 1   
    12     9    10 2   
    13     9    11 1   
    14    11    12 1   
    15    12    13 1   
    16    12    23 1   
    17    12    24 1   
    18    13    14 1   
    19    13    25 1   
    20    13    26 1   
    21    14    15 ar  
    22    14    16 ar  
    23    15    19 ar  
    24    15    27 1   
    25    16    17 ar  
    26    16    28 1   
    27    17    18 ar  
    28    17    29 1   
    29    18    19 ar  
    30    18    30 1   
    31    19    20 1   
    32    20    21 1   
    33    21    31 1   
    34    21    32 1   
    35    21    33 1   
@<TRIPOS>SUBSTRUCTURE
     1 W76         1 TEMP              0 ****  ****    0 ROOT
