@<TRIPOS>MOLECULE
W77
   25    26     1     0     0
SMALL
abcg2


@<TRIPOS>ATOM
      1 C           -5.0450     0.4560    -0.5630 ca         1 W77      -0.136000
      2 N           -4.9210    -1.5310     0.7370 nb         1 W77      -0.642000
      3 O           -0.9070     1.3850    -1.0840 o          1 W77      -0.550100
      4 CL           1.3050     2.4340     0.8070 cl         1 W77      -0.159000
      5 C1          -3.6630     0.5640    -0.5990 ca         1 W77      -0.097000
      6 CL1          5.1090    -1.2670     0.1750 cl         1 W77      -0.179000
      7 C2          -2.9120    -0.4110     0.0530 ca         1 W77      -0.075000
      8 C3          -3.6050    -1.4360     0.7050 ca         1 W77       0.286900
      9 C4          -5.6340    -0.5990     0.1120 ca         1 W77       0.306900
     10 C5          -0.6220     0.3910    -0.4480 c          1 W77       0.626700
     11 C6           0.8000    -0.0250    -0.2330 ca         1 W77      -0.154600
     12 C7           1.2120    -1.3000    -0.6070 ca         1 W77      -0.074000
     13 C8           2.5340    -1.6960    -0.4930 ca         1 W77      -0.109000
     14 C9           3.4550    -0.7970     0.0180 ca         1 W77       0.142000
     15 C10          3.0790     0.4770     0.4130 ca         1 W77      -0.106000
     16 C11          1.7540     0.8550     0.2750 ca         1 W77       0.167000
     17 H           -5.6590     1.1960    -1.0580 ha         1 W77       0.126000
     18 H1          -3.1980     1.3850    -1.1170 ha         1 W77       0.153000
     19 HN1         -1.1400    -1.2090     0.6690 hn         1 W77       0.159000
     20 H3          -3.0490    -2.2140     1.2210 h4         1 W77       0.013100
     21 H4          -6.7130    -0.6990     0.1520 h4         1 W77       0.023100
     22 H7           0.4920    -1.9980    -1.0150 ha         1 W77       0.127000
     23 H8           2.8370    -2.6860    -0.8010 ha         1 W77       0.139000
     24 H10          3.8040     1.1670     0.8220 ha         1 W77       0.150000
     25 N1          -1.5190    -0.4550     0.1140 ns         1 W77      -0.138000
@<TRIPOS>BOND
     1     1     5 ar  
     2     1     9 ar  
     3     1    17 1   
     4     2     8 ar  
     5     2     9 ar  
     6     3    10 2   
     7     4    16 1   
     8     5     7 ar  
     9     5    18 1   
    10     6    14 1   
    11     7     8 ar  
    12     7    25 1   
    13     8    20 1   
    14     9    21 1   
    15    10    11 1   
    16    10    25 1   
    17    11    12 ar  
    18    11    16 ar  
    19    12    13 ar  
    20    12    22 1   
    21    13    14 ar  
    22    13    23 1   
    23    14    15 ar  
    24    15    16 ar  
    25    15    24 1   
    26    19    25 1   
@<TRIPOS>SUBSTRUCTURE
     1 W77         1 TEMP              0 ****  ****    0 ROOT
