@<TRIPOS>MOLECULE
W77
   25    26     1     0     0
SMALL
No Charge or Current Charge


@<TRIPOS>ATOM
      1 C           -5.1520     0.5380    -0.3630 ca         1 W77      -0.136000
      2 N           -4.9930    -1.7720     0.3420 nb         1 W77      -0.642000
      3 O           -0.9020     1.5970    -0.7980 o          1 W77      -0.550100
      4 Cl           1.6480     2.7280     0.1620 cl         1 W77      -0.159000
      5 C1          -3.7520     0.6660    -0.3810 ca         1 W77      -0.097000
      6 Cl1          5.1950    -1.3720     0.2470 cl         1 W77      -0.179000
      7 C2          -2.9710    -0.4580    -0.0300 ca         1 W77      -0.075000
      8 C3          -3.6460    -1.6480     0.3240 ca         1 W77       0.286900
      9 C4          -5.7290    -0.6900     0.0010 ca         1 W77       0.306900
     10 C5          -0.5960     0.5000    -0.3470 c          1 W77       0.626700
     11 C6           0.8490     0.0570    -0.1870 ca         1 W77      -0.154600
     12 C7           1.1740    -1.3250    -0.2410 ca         1 W77      -0.074000
     13 C8           2.5040    -1.7580    -0.1090 ca         1 W77      -0.109000
     14 C9           3.5310    -0.8270     0.0800 ca         1 W77       0.142000
     15 C10          3.2320     0.5390     0.1400 ca         1 W77      -0.106000
     16 C11          1.9070     0.9870     0.0080 ca         1 W77       0.167000
     17 H           -5.7890     1.3780    -0.6260 ha         1 W77       0.126000
     18 H1          -3.3130     1.6190    -0.6590 ha         1 W77       0.153000
     19 HN1         -1.1450    -1.3220     0.3440 hn         1 W77       0.159000
     20 H3          -3.0830    -2.5380     0.6040 h4         1 W77       0.013100
     21 H4          -6.8120    -0.8110     0.0220 h4         1 W77       0.023100
     22 H7           0.4090    -2.0800    -0.4090 ha         1 W77       0.127000
     23 H8           2.7390    -2.8190    -0.1590 ha         1 W77       0.139000
     24 H10          4.0320     1.2570     0.2970 ha         1 W77       0.150000
     25 N1          -1.5440    -0.4600    -0.0050 ns         1 W77      -0.138000
@<TRIPOS>BOND
     1     1     5 ar  
     2     1     9 ar  
     3     1    17 1   
     4     2     8 ar  
     5     2     9 ar  
     6     3    10 2   
     7     4    16 1   
     8     5     7 ar  
     9     5    18 1   
    10     6    14 1   
    11     7     8 ar  
    12     7    25 1   
    13     8    20 1   
    14     9    21 1   
    15    10    11 1   
    16    10    25 1   
    17    11    12 ar  
    18    11    16 ar  
    19    12    13 ar  
    20    12    22 1   
    21    13    14 ar  
    22    13    23 1   
    23    14    15 ar  
    24    15    16 ar  
    25    15    24 1   
    26    19    25 1   
@<TRIPOS>SUBSTRUCTURE
     1 W77         1 TEMP              0 ****  ****    0 ROOT
