@<TRIPOS>MOLECULE
W78
   66    72     1     0     0
SMALL
No Charge or Current Charge


@<TRIPOS>ATOM
      1 C4          44.9210     2.6400   -16.7870 c5         1 W78       0.294300
      2 C13         43.8340     7.5030   -16.4730 c          1 W78       0.502500
      3 C21         49.9790     1.1780   -18.9140 c5         1 W78       0.157300
      4 C22         49.8550     1.9110   -17.5340 c5         1 W78       0.167300
      5 C24         51.7090     2.7830   -18.7510 c5         1 W78       0.307300
      6 C28         51.4720     4.4860   -20.5960 cc         1 W78       0.413700
      7 C1          45.6470     1.1280   -15.1170 c5         1 W78       0.124300
      8 C11         44.1110     5.0500   -16.6470 cc         1 W78      -0.188900
      9 C12         44.6920     6.2670   -16.4560 cd         1 W78       0.213500
     10 C16         42.7010     4.9050   -16.8600 cc         1 W78       0.392800
     11 C18         46.6880     1.9220   -14.2470 c3         1 W78       0.208600
     12 C2          46.1060     0.5160   -16.4770 c5         1 W78       0.155300
     13 C23         51.3340     2.3640   -17.3000 c5         1 W78       0.133300
     14 C3          46.1380     1.8130   -17.3360 c5         1 W78       0.184300
     15 C30         50.5130     5.0650   -18.6670 ca         1 W78       0.117500
     16 C31         50.3970     6.0600   -19.6070 ca         1 W78      -0.075600
     17 C32         49.7400     7.2540   -19.2430 ca         1 W78       0.442900
     18 C34         49.4150     6.3910   -17.1520 ca         1 W78       0.182900
     19 C37         48.7650     1.2490   -19.8860 c3         1 W78       0.220600
     20 C9          46.2730     4.7800   -16.3590 cc         1 W78       0.420400
     21 F44         52.1450     1.3000   -16.8720 f          1 W78      -0.236000
     22 N10         46.0570     6.0910   -16.2720 nd         1 W78      -0.599000
     23 N14         42.4890     7.2080   -16.6950 ns         1 W78      -0.238900
     24 N15         41.8910     5.9660   -16.8870 nd         1 W78      -0.392300
     25 N27         51.1860     4.0460   -19.2990 na         1 W78      -0.338300
     26 N29         50.9860     5.7180   -20.8250 nd         1 W78      -0.521100
     27 N33         49.2420     7.4250   -18.0090 nb         1 W78      -0.299000
     28 N35         50.0300     5.2140   -17.4170 nb         1 W78      -0.246000
     29 N8          45.0930     4.0860   -16.5810 na         1 W78      -0.196500
     30 O17         44.2330     8.6530   -16.3160 o          1 W78      -0.564000
     31 O19         47.8990     2.2670   -14.9660 os         1 W78      -0.625400
     32 O25         51.1790     1.7010   -19.5490 os         1 W78      -0.436000
     33 O26         49.4200     0.9470   -16.5300 os         1 W78      -0.553400
     34 O38         48.0210     2.4670   -19.6750 os         1 W78      -0.611400
     35 O5          44.5700     2.0180   -15.5240 os         1 W78      -0.446000
     36 O6          45.9440     1.4140   -18.7190 os         1 W78      -0.544400
     37 O7          45.1520    -0.4280   -16.9940 oh         1 W78      -0.686000
     38 P20         49.2840     1.4230   -14.9900 p5         1 W78       1.152200
     39 P39         46.4150     2.4880   -19.8280 p5         1 W78       1.128200
     40 S42         46.1030     1.4510   -21.6160 sh         1 W78      -0.484200
     41 S43         48.7870    -0.4020   -14.0980 sh         1 W78      -0.496200
     42 H48         44.0770     2.5330   -17.4780 h2         1 W78       0.109700
     43 H55         50.1690     0.1120   -18.7320 h1         1 W78       0.101700
     44 H56         49.1690     2.7640   -17.5650 h1         1 W78       0.075700
     45 H58         52.8000     2.8370   -18.8610 h2         1 W78       0.123700
     46 H59         52.0210     3.8760   -21.3040 h5         1 W78       0.076800
     47 H45         45.2200     0.3490   -14.4720 h1         1 W78       0.093700
     48 H52         42.2140     3.9510   -17.0070 h4         1 W78       0.049800
     49 H53         46.2010     2.8380   -13.8860 h1         1 W78       0.074700
     50 H54         46.9110     1.3390   -13.3450 h1         1 W78       0.074700
     51 H46         47.0940     0.0450   -16.4110 h1         1 W78       0.075700
     52 H57         51.4370     3.1880   -16.5840 h1         1 W78       0.126700
     53 H47         47.0860     2.3460   -17.2280 h1         1 W78       0.071700
     54 H60         49.0210     6.5200   -16.1450 h5         1 W78       0.045100
     55 H64         48.1370     0.3680   -19.6970 h1         1 W78       0.067200
     56 H63         49.1260     1.1840   -20.9200 h1         1 W78       0.067200
     57 H50         47.2360     4.2950   -16.2730 h5         1 W78       0.062100
     58 H51         41.8840     8.0250   -16.7130 hn         1 W78       0.354500
     59 H61         48.8700     8.9930   -19.8840 hn         1 W78       0.509500
     60 H62         49.7530     8.1180   -21.0890 hn         1 W78       0.509500
     61 H49         45.1280    -0.2400   -17.9640 ho         1 W78       0.514000
     62 H1          45.3820     2.5280   -22.0070 hs         1 W78       0.324800
     63 H2          49.8490    -0.1700   -13.2910 hs         1 W78       0.339800
     64 N36         49.5760     8.2960   -20.1040 nv         1 W78      -1.031900
     65 O40         45.7710     3.8220   -19.7360 o          1 W78      -0.458000
     66 O41         50.4590     2.1000   -14.3850 o          1 W78      -0.497000
@<TRIPOS>BOND
     1     1    14 1   
     2     1    29 1   
     3     1    35 1   
     4     1    42 1   
     5     2     9 1   
     6     2    23 1   
     7     2    30 2   
     8     3     4 1   
     9     3    19 1   
    10     3    32 1   
    11     3    43 1   
    12     4    13 1   
    13     4    33 1   
    14     4    44 1   
    15     5    13 1   
    16     5    25 1   
    17     5    32 1   
    18     5    45 1   
    19     6    25 1   
    20     6    26 2   
    21     6    46 1   
    22     7    11 1   
    23     7    12 1   
    24     7    35 1   
    25     7    47 1   
    26     8     9 2   
    27     8    10 1   
    28     8    29 1   
    29     9    22 1   
    30    10    24 2   
    31    10    48 1   
    32    11    31 1   
    33    11    49 1   
    34    11    50 1   
    35    12    14 1   
    36    12    37 1   
    37    12    51 1   
    38    13    21 1   
    39    13    52 1   
    40    14    36 1   
    41    14    53 1   
    42    15    16 ar  
    43    15    25 1   
    44    15    28 ar  
    45    16    17 ar  
    46    16    26 1   
    47    17    27 ar  
    48    17    64 1   
    49    18    27 ar  
    50    18    28 ar  
    51    18    54 1   
    52    19    34 1   
    53    19    55 1   
    54    19    56 1   
    55    20    22 2   
    56    20    29 1   
    57    20    57 1   
    58    23    24 1   
    59    23    58 1   
    60    31    38 1   
    61    33    38 1   
    62    34    39 1   
    63    36    39 1   
    64    37    61 1   
    65    38    41 1   
    66    38    66 2   
    67    39    40 1   
    68    39    65 2   
    69    40    62 1   
    70    41    63 1   
    71    59    64 1   
    72    60    64 1   
@<TRIPOS>SUBSTRUCTURE
     1 W78         1 TEMP              0 ****  ****    0 ROOT
