@<TRIPOS>MOLECULE
W78
   66    72     1     0     0
SMALL
abcg2


@<TRIPOS>ATOM
      1 C4          44.9100     2.5610   -16.6420 c5         1 W78       0.294300
      2 C13         45.1690     7.2240   -18.1680 c          1 W78       0.502500
      3 C21         49.9010     1.4770   -18.9020 c5         1 W78       0.157300
      4 C22         49.8740     2.0040   -17.4670 c5         1 W78       0.167300
      5 C24         51.0100     3.5490   -18.8530 c5         1 W78       0.307300
      6 C28         49.0130     5.0020   -19.5290 cc         1 W78       0.413700
      7 C1          45.4550     0.8480   -15.1260 c5         1 W78       0.124300
      8 C11         44.7400     4.8920   -17.5950 cc         1 W78      -0.188900
      9 C12         45.5420     6.0190   -17.4810 cd         1 W78       0.213500
     10 C16         43.5530     4.8950   -18.3600 cc         1 W78       0.392800
     11 C18         46.7970     0.7220   -14.4380 c3         1 W78       0.208600
     12 C2          45.4010     0.2440   -16.5410 c5         1 W78       0.155300
     13 C23         51.0700     2.9480   -17.4470 c5         1 W78       0.133300
     14 C3          45.7090     1.4790   -17.3750 c5         1 W78       0.184300
     15 C30         50.5360     5.9460   -18.2400 ca         1 W78       0.117500
     16 C31         49.4910     6.8250   -18.5220 ca         1 W78      -0.075600
     17 C32         49.5580     8.0920   -17.9110 ca         1 W78       0.442900
     18 C34         51.6090     7.4590   -17.0370 ca         1 W78       0.182900
     19 C37         48.5870     1.0000   -19.4710 c3         1 W78       0.220600
     20 C9          46.5030     4.4990   -16.3360 cc         1 W78       0.420400
     21 F44         52.2450     2.2020   -17.3460 f          1 W78      -0.236000
     22 N10         46.6310     5.7580   -16.6840 nd         1 W78      -0.599000
     23 N14         43.9870     7.0610   -18.8740 ns         1 W78      -0.238900
     24 N15         43.1940     5.9790   -18.9830 nd         1 W78      -0.392300
     25 N27         50.2060     4.7700   -18.8750 na         1 W78      -0.338300
     26 N29         48.5580     6.2150   -19.3420 nd         1 W78      -0.521100
     27 N33         50.6580     8.3860   -17.1870 nb         1 W78      -0.299000
     28 N35         51.6230     6.2120   -17.5060 nb         1 W78      -0.246000
     29 N8          45.3710     3.9190   -16.8590 na         1 W78      -0.196500
     30 O17         45.7580     8.3100   -18.1890 o          1 W78      -0.564000
     31 O19         47.8430     0.9480   -15.4110 os         1 W78      -0.625400
     32 O25         50.4190     2.5720   -19.6810 os         1 W78      -0.436000
     33 O26         49.9930     0.9120   -16.5590 os         1 W78      -0.553400
     34 O38         47.6600     2.1050   -19.4920 os         1 W78      -0.611400
     35 O5          45.0860     2.2440   -15.2780 os         1 W78      -0.446000
     36 O6          45.3580     1.3190   -18.7440 os         1 W78      -0.544400
     37 O7          44.1010    -0.2030   -16.8830 oh         1 W78      -0.686000
     38 P20         49.3930     0.9200   -15.0840 p5         1 W78       1.152200
     39 P39         46.1350     2.0570   -19.9270 p5         1 W78       1.128200
     40 S42         45.8550     0.6140   -21.3990 sh         1 W78      -0.484200
     41 S43         49.8120    -1.0200   -14.4530 sh         1 W78      -0.496200
     42 H48         43.8600     2.5230   -16.9370 h2         1 W78       0.109700
     43 H55         50.5970     0.6350   -18.9510 h1         1 W78       0.101700
     44 H56         48.9700     2.5830   -17.2790 h1         1 W78       0.075700
     45 H58         52.0120     3.7860   -19.2120 h2         1 W78       0.123700
     46 H59         48.5390     4.2330   -20.1120 h5         1 W78       0.076800
     47 H45         44.7060     0.3750   -14.4880 h1         1 W78       0.093700
     48 H52         42.9110     4.0330   -18.4710 h4         1 W78       0.049800
     49 H53         46.8810     1.4490   -13.6310 h1         1 W78       0.074700
     50 H54         46.9080    -0.2870   -14.0390 h1         1 W78       0.074700
     51 H46         46.1440    -0.5410   -16.6810 h1         1 W78       0.075700
     52 H57         51.0620     3.6820   -16.6470 h1         1 W78       0.126700
     53 H47         46.7660     1.7040   -17.2830 h1         1 W78       0.071700
     54 H60         52.4690     7.7590   -16.4480 h5         1 W78       0.045100
     55 H64         48.2010     0.1870   -18.8540 h1         1 W78       0.067200
     56 H63         48.7270     0.6420   -20.4900 h1         1 W78       0.067200
     57 H50         47.1780     3.9470   -15.7020 h5         1 W78       0.062100
     58 H51         43.6580     7.8680   -19.3890 hn         1 W78       0.354500
     59 H61         48.6620     9.8270   -17.4340 hn         1 W78       0.509500
     60 H62         47.6410     8.7080   -18.2490 hn         1 W78       0.509500
     61 H49         43.9120    -1.0090   -16.3860 ho         1 W78       0.514000
     62 H1          46.2060     1.4560   -22.3890 hs         1 W78       0.324800
     63 H2          50.5480    -0.5980   -13.4100 hs         1 W78       0.339800
     64 N36         48.5860     9.0160   -18.0290 nv         1 W78      -1.031900
     65 O40         45.6750     3.4140   -20.2550 o          1 W78      -0.458000
     66 O41         49.8750     1.9810   -14.1850 o          1 W78      -0.497000
@<TRIPOS>BOND
     1     1    14 1   
     2     1    29 1   
     3     1    35 1   
     4     1    42 1   
     5     2     9 1   
     6     2    23 1   
     7     2    30 2   
     8     3     4 1   
     9     3    19 1   
    10     3    32 1   
    11     3    43 1   
    12     4    13 1   
    13     4    33 1   
    14     4    44 1   
    15     5    13 1   
    16     5    25 1   
    17     5    32 1   
    18     5    45 1   
    19     6    25 1   
    20     6    26 2   
    21     6    46 1   
    22     7    11 1   
    23     7    12 1   
    24     7    35 1   
    25     7    47 1   
    26     8     9 2   
    27     8    10 1   
    28     8    29 1   
    29     9    22 1   
    30    10    24 2   
    31    10    48 1   
    32    11    31 1   
    33    11    49 1   
    34    11    50 1   
    35    12    14 1   
    36    12    37 1   
    37    12    51 1   
    38    13    21 1   
    39    13    52 1   
    40    14    36 1   
    41    14    53 1   
    42    15    16 ar  
    43    15    25 1   
    44    15    28 ar  
    45    16    17 ar  
    46    16    26 1   
    47    17    27 ar  
    48    17    64 1   
    49    18    27 ar  
    50    18    28 ar  
    51    18    54 1   
    52    19    34 1   
    53    19    55 1   
    54    19    56 1   
    55    20    22 2   
    56    20    29 1   
    57    20    57 1   
    58    23    24 1   
    59    23    58 1   
    60    31    38 1   
    61    33    38 1   
    62    34    39 1   
    63    36    39 1   
    64    37    61 1   
    65    38    41 1   
    66    38    66 2   
    67    39    40 1   
    68    39    65 2   
    69    40    62 1   
    70    41    63 1   
    71    59    64 1   
    72    60    64 1   
@<TRIPOS>SUBSTRUCTURE
     1 W78         1 TEMP              0 ****  ****    0 ROOT
