@<TRIPOS>MOLECULE
W79
   49    51     1     0     0
SMALL
bcc


@<TRIPOS>ATOM
      1 N02          7.0200    -1.5320     0.1360 nv         1 W79      -0.946500
      2 C02          6.1150    -0.5380     0.3730 ca         1 W79       0.667200
      3 C03          6.5400     0.7880     0.5670 ca         1 W79      -0.315300
      4 C04          5.5940     1.7750     0.7560 ca         1 W79       0.002700
      5 C07          5.9950     3.1980     0.9970 c3         1 W79      -0.053800
      6 C05          4.2440     1.4060     0.7400 ca         1 W79      -0.298300
      7 N01          4.8300    -0.8770     0.3690 nb         1 W79      -0.754000
      8 C06          3.9140     0.0770     0.5460 ca         1 W79       0.461600
      9 C08          2.4810    -0.3700     0.4850 c3         1 W79      -0.124700
     10 C09          2.0740    -0.7490    -0.9450 c3         1 W79      -0.024100
     11 C13          0.6630    -1.2540    -1.0100 ca         1 W79      -0.193600
     12 C14         -0.4260    -0.3920    -0.9970 ca         1 W79      -0.086000
     13 C12          0.3900    -2.6180    -1.0370 ca         1 W79       0.404200
     14 N11         -0.8350    -3.1260    -1.0630 nb         1 W79      -0.664000
     15 C16         -1.8600    -2.2870    -1.0540 ca         1 W79       0.405200
     16 C15         -1.7220    -0.8980    -1.0160 cp         1 W79      -0.147300
     17 C21         -2.9050    -0.0180    -0.9990 cp         1 W79      -0.036000
     18 C26         -4.0500    -0.3870    -0.2890 ca         1 W79      -0.114000
     19 C22         -2.9050     1.1960    -1.6820 ca         1 W79      -0.114000
     20 C23         -4.0260     2.0160    -1.6500 ca         1 W79      -0.134000
     21 C24         -5.1550     1.6350    -0.9430 ca         1 W79      -0.098000
     22 C25         -5.1780     0.4210    -0.2580 ca         1 W79      -0.090300
     23 C27         -6.4040     0.0020     0.5090 c3         1 W79       0.202100
     24 N28         -6.7970     1.0130     1.4700 n7         1 W79      -0.804200
     25 C29         -7.9970     0.6500     2.1960 c3         1 W79       0.143100
     26 H1           6.6930    -2.4740     0.2740 hn         1 W79       0.414300
     27 H2           7.9710    -1.3780     0.4260 hn         1 W79       0.414300
     28 H3           7.5980     1.0230     0.5660 ha         1 W79       0.137000
     29 H4           5.9490     3.4300     2.0630 hc         1 W79       0.046367
     30 H5           7.0120     3.3940     0.6610 hc         1 W79       0.046367
     31 H6           5.3250     3.8910     0.4890 hc         1 W79       0.046367
     32 H7           3.4670     2.1490     0.8720 ha         1 W79       0.139000
     33 H8           2.3440    -1.2350     1.1390 hc         1 W79       0.056700
     34 H9           1.8270     0.4220     0.8560 hc         1 W79       0.056700
     35 H10          2.1880     0.1210    -1.5950 hc         1 W79       0.059200
     36 H11          2.7560    -1.5160    -1.3190 hc         1 W79       0.059200
     37 H12         -0.2630     0.6790    -0.9560 ha         1 W79       0.137000
     38 H13          1.2100    -3.3300    -1.0420 h4         1 W79       0.021100
     39 H14         -2.8480    -2.7330    -1.0990 h4         1 W79       0.020100
     40 H15         -4.0550    -1.3140     0.2730 ha         1 W79       0.130000
     41 H16         -2.0380     1.4990    -2.2560 ha         1 W79       0.132000
     42 H17         -4.0170     2.9540    -2.1890 ha         1 W79       0.132000
     43 H18         -6.0240     2.2800    -0.9190 ha         1 W79       0.145000
     44 H19         -7.2340    -0.1360    -0.1920 h1         1 W79       0.036700
     45 H20         -6.2280    -0.9840     0.9680 h1         1 W79       0.036700
     46 H21         -6.0410     1.1510     2.1280 hn         1 W79       0.355800
     47 H23         -8.8510     0.6260     1.5160 h1         1 W79       0.029700
     48 H24         -7.9460    -0.3290     2.6910 h1         1 W79       0.029700
     49 H25         -8.2060     1.4000     2.9590 h1         1 W79       0.029700
@<TRIPOS>BOND
     1     1     2 1   
     2     1    26 1   
     3     1    27 1   
     4     2     3 ar  
     5     2     7 ar  
     6     3     4 ar  
     7     3    28 1   
     8     4     5 1   
     9     4     6 ar  
    10     5    29 1   
    11     5    30 1   
    12     5    31 1   
    13     6     8 ar  
    14     6    32 1   
    15     7     8 ar  
    16     8     9 1   
    17     9    10 1   
    18     9    33 1   
    19     9    34 1   
    20    10    11 1   
    21    10    35 1   
    22    10    36 1   
    23    11    12 ar  
    24    11    13 ar  
    25    12    16 ar  
    26    12    37 1   
    27    13    14 ar  
    28    13    38 1   
    29    14    15 ar  
    30    15    16 ar  
    31    15    39 1   
    32    16    17 1   
    33    17    18 ar  
    34    17    19 ar  
    35    18    22 ar  
    36    18    40 1   
    37    19    20 ar  
    38    19    41 1   
    39    20    21 ar  
    40    20    42 1   
    41    21    22 ar  
    42    21    43 1   
    43    22    23 1   
    44    23    24 1   
    45    23    44 1   
    46    23    45 1   
    47    24    25 1   
    48    24    46 1   
    49    25    47 1   
    50    25    48 1   
    51    25    49 1   
@<TRIPOS>SUBSTRUCTURE
     1 W79         1 TEMP              0 ****  ****    0 ROOT
