@<TRIPOS>MOLECULE
W79
   49    51     1     0     0
SMALL
No Charge or Current Charge


@<TRIPOS>ATOM
      1 N02          6.9650    -1.5340     1.2430 nv         1 W79      -1.056900
      2 C02          6.1420    -0.5300     0.9350 ca         1 W79       0.601900
      3 C03          6.5680     0.7860     0.7390 ca         1 W79      -0.232000
      4 C04          5.6060     1.7580     0.4260 ca         1 W79       0.002700
      5 C07          5.9930     3.2090     0.1980 c3         1 W79      -0.053800
      6 C05          4.2690     1.3370     0.3390 ca         1 W79      -0.215000
      7 N01          4.8880    -0.9470     0.8590 nb         1 W79      -0.754000
      8 C06          3.9520    -0.0170     0.5620 ca         1 W79       0.396300
      9 C08          2.5140    -0.5030     0.4660 c3         1 W79      -0.124700
     10 C09          2.0790    -0.7740    -0.9910 c3         1 W79      -0.024100
     11 C13          0.6330    -1.2460    -1.0800 ca         1 W79      -0.128300
     12 C14         -0.4270    -0.3250    -0.9960 ca         1 W79      -0.068000
     13 C12          0.3290    -2.6120    -1.2410 ca         1 W79       0.338900
     14 N11         -0.9350    -3.0840    -1.3190 nb         1 W79      -0.664000
     15 C16         -1.9480    -2.1880    -1.2360 ca         1 W79       0.339900
     16 C15         -1.7630    -0.7890    -1.0740 cp         1 W79      -0.082000
     17 C21         -2.9270     0.1510    -0.9910 cp         1 W79      -0.036000
     18 C26         -4.1530    -0.2520    -0.4020 ca         1 W79      -0.096000
     19 C22         -2.8400     1.4710    -1.4990 ca         1 W79      -0.096000
     20 C23         -3.9330     2.3510    -1.4210 ca         1 W79      -0.116000
     21 C24         -5.1360     1.9300    -0.8330 ca         1 W79      -0.080000
     22 C25         -5.2530     0.6250    -0.3200 ca         1 W79      -0.090300
     23 C27         -6.5580     0.1670     0.3170 c3         1 W79       0.202100
     24 N28         -6.6240     0.5940     1.7260 n7         1 W79      -0.859400
     25 C29         -7.8350     0.1680     2.4530 c3         1 W79       0.143100
     26 H1           6.5020    -2.3660     1.5870 hn         1 W79       0.469500
     27 H2           7.8540    -1.2990     1.6690 hn         1 W79       0.469500
     28 H3           7.6190     1.0440     0.8240 ha         1 W79       0.119000
     29 H4           5.9290     3.7810     1.1310 hc         1 W79       0.046367
     30 H5           7.0190     3.2950    -0.1780 hc         1 W79       0.046367
     31 H6           5.3320     3.6870    -0.5350 hc         1 W79       0.046367
     32 H7           3.4810     2.0460     0.1010 ha         1 W79       0.121000
     33 H8           2.3790    -1.4190     1.0560 hc         1 W79       0.056700
     34 H9           1.8460     0.2450     0.9080 hc         1 W79       0.056700
     35 H10          2.2090     0.1420    -1.5820 hc         1 W79       0.059200
     36 H11          2.7520    -1.5200    -1.4330 hc         1 W79       0.059200
     37 H12         -0.2160     0.7320    -0.8560 ha         1 W79       0.119000
     38 H13          1.1240    -3.3540    -1.3070 h4         1 W79       0.021100
     39 H14         -2.9500    -2.6070    -1.3160 h4         1 W79       0.020100
     40 H15         -4.2490    -1.2540     0.0100 ha         1 W79       0.112000
     41 H16         -1.9240     1.8150    -1.9720 ha         1 W79       0.114000
     42 H17         -3.8470     3.3600    -1.8200 ha         1 W79       0.114000
     43 H18         -5.9770     2.6170    -0.7730 ha         1 W79       0.127000
     44 H19         -7.4010     0.5870    -0.2510 h1         1 W79       0.036700
     45 H20         -6.6300    -0.9270     0.2430 h1         1 W79       0.036700
     46 H21         -5.8050     0.2030     2.2080 hn         1 W79       0.411000
     47 H23         -8.7400     0.5680     1.9760 h1         1 W79       0.029700
     48 H24         -7.9140    -0.9280     2.4760 h1         1 W79       0.029700
     49 H25         -7.8100     0.5290     3.4900 h1         1 W79       0.029700
@<TRIPOS>BOND
     1     1     2 1   
     2     1    26 1   
     3     1    27 1   
     4     2     3 ar  
     5     2     7 ar  
     6     3     4 ar  
     7     3    28 1   
     8     4     5 1   
     9     4     6 ar  
    10     5    29 1   
    11     5    30 1   
    12     5    31 1   
    13     6     8 ar  
    14     6    32 1   
    15     7     8 ar  
    16     8     9 1   
    17     9    10 1   
    18     9    33 1   
    19     9    34 1   
    20    10    11 1   
    21    10    35 1   
    22    10    36 1   
    23    11    12 ar  
    24    11    13 ar  
    25    12    16 ar  
    26    12    37 1   
    27    13    14 ar  
    28    13    38 1   
    29    14    15 ar  
    30    15    16 ar  
    31    15    39 1   
    32    16    17 1   
    33    17    18 ar  
    34    17    19 ar  
    35    18    22 ar  
    36    18    40 1   
    37    19    20 ar  
    38    19    41 1   
    39    20    21 ar  
    40    20    42 1   
    41    21    22 ar  
    42    21    43 1   
    43    22    23 1   
    44    23    24 1   
    45    23    44 1   
    46    23    45 1   
    47    24    25 1   
    48    24    46 1   
    49    25    47 1   
    50    25    48 1   
    51    25    49 1   
@<TRIPOS>SUBSTRUCTURE
     1 W79         1 TEMP              0 ****  ****    0 ROOT
