@<TRIPOS>MOLECULE
W7A
   40    42     1     0     0
SMALL
No Charge or Current Charge


@<TRIPOS>ATOM
      1 OAJ         -4.2850    -3.0680    -0.6940 o          1 W7A      -0.688500
      2 CAI         -3.3940    -2.2840    -0.3840 c          1 W7A       0.718200
      3 OAK         -2.2200    -2.6260    -0.3620 o          1 W7A      -0.688500
      4 C4          -3.8050    -0.8580    -0.0400 cc         1 W7A       0.026400
      5 N3          -5.1710    -0.5960    -0.1400 ns         1 W7A      -0.494600
      6 C2          -5.7830     0.5900     0.0890 c          1 W7A       0.606000
      7 O2          -6.9840     0.7420    -0.0210 o          1 W7A      -0.608000
      8 N1          -4.9420     1.5870     0.4460 ns         1 W7A      -0.471500
      9 C6          -3.5910     1.5370     0.6040 c          1 W7A       0.578200
     10 O6          -2.9730     2.5380     0.9280 o          1 W7A      -0.589000
     11 C5          -2.9770     0.1970     0.3470 cd         1 W7A      -0.295400
     12 CAL         -1.4660     0.1370     0.5370 c3         1 W7A       0.019800
     13 CAM         -0.6960     0.4040    -0.7730 c3         1 W7A      -0.034100
     14 CAN          0.8130     0.3320    -0.5780 ca         1 W7A      -0.044300
     15 CAS          1.5580     1.5020    -0.3440 ca         1 W7A      -0.111000
     16 CAR          2.9500     1.4320    -0.1610 ca         1 W7A      -0.104500
     17 CAO          1.4750    -0.9070    -0.6230 ca         1 W7A      -0.111000
     18 CAP          2.8670    -0.9760    -0.4390 ca         1 W7A      -0.104500
     19 CAQ          3.6350     0.1920    -0.2050 cp         1 W7A      -0.069000
     20 CAT          5.1190     0.1180    -0.0090 cp         1 W7A      -0.008000
     21 CAU          5.9730     1.1510    -0.4750 ca         1 W7A      -0.106000
     22 CAY          7.3650     1.0820    -0.2920 ca         1 W7A      -0.115500
     23 CAX          7.9340    -0.0220     0.3630 ca         1 W7A      -0.124000
     24 CAW          7.1100    -1.0560     0.8340 ca         1 W7A      -0.115500
     25 CAV          5.7190    -0.9870     0.6490 ca         1 W7A      -0.106000
     26 H2          -5.3710     2.4820     0.6180 hn         1 W7A       0.318500
     27 H4          -1.1350     0.8660     1.2870 hc         1 W7A       0.057200
     28 H5          -1.1590    -0.8270     0.9560 hc         1 W7A       0.057200
     29 H6          -1.0100    -0.3240    -1.5300 hc         1 W7A       0.054700
     30 H7          -0.9820     1.3890    -1.1620 hc         1 W7A       0.054700
     31 H8           1.0590     2.4670    -0.2990 ha         1 W7A       0.129500
     32 H9           3.4990     2.3500     0.0310 ha         1 W7A       0.103000
     33 H10          0.9100    -1.8200    -0.8020 ha         1 W7A       0.129500
     34 H11          3.3540    -1.9470    -0.4920 ha         1 W7A       0.103000
     35 H12          5.5540     2.0070    -0.9970 ha         1 W7A       0.115500
     36 H13          8.0020     1.8830    -0.6600 ha         1 W7A       0.104000
     37 H14          9.0120    -0.0750     0.5050 ha         1 W7A       0.102000
     38 H15          7.5490    -1.9100     1.3440 ha         1 W7A       0.104000
     39 H16          5.0980    -1.7920     1.0340 ha         1 W7A       0.115500
     40 H17         -5.7930    -1.3510    -0.4160 hn         1 W7A       0.490000
@<TRIPOS>BOND
     1     1     2 1   
     2     2     3 1   
     3     2     4 1   
     4     4     5 1   
     5     4    11 2   
     6     5     6 1   
     7     5    40 1   
     8     6     7 2   
     9     6     8 1   
    10     8     9 1   
    11     8    26 1   
    12     9    10 2   
    13     9    11 1   
    14    11    12 1   
    15    12    13 1   
    16    12    27 1   
    17    12    28 1   
    18    13    14 1   
    19    13    29 1   
    20    13    30 1   
    21    14    15 ar  
    22    14    17 ar  
    23    15    16 ar  
    24    15    31 1   
    25    16    19 ar  
    26    16    32 1   
    27    17    18 ar  
    28    17    33 1   
    29    18    19 ar  
    30    18    34 1   
    31    19    20 1   
    32    20    21 ar  
    33    20    25 ar  
    34    21    22 ar  
    35    21    35 1   
    36    22    23 ar  
    37    22    36 1   
    38    23    24 ar  
    39    23    37 1   
    40    24    25 ar  
    41    24    38 1   
    42    25    39 1   
@<TRIPOS>SUBSTRUCTURE
     1 W7A         1 TEMP              0 ****  ****    0 ROOT
