@<TRIPOS>MOLECULE
W7A
   40    42     1     0     0
SMALL
abcg2


@<TRIPOS>ATOM
      1 OAJ         -4.1310    -3.0050    -0.7700 o          1 W7A      -0.688500
      2 CAI         -3.2030    -2.2250    -0.4880 c          1 W7A       0.718200
      3 OAK         -1.9870    -2.4390    -0.5240 o          1 W7A      -0.688500
      4 C4          -3.6750    -0.8200    -0.0600 cc         1 W7A       0.026400
      5 N3          -5.0310    -0.6870    -0.1730 ns         1 W7A      -0.494600
      6 C2          -5.7410     0.4350     0.1100 c          1 W7A       0.606000
      7 O2          -6.9500     0.5180     0.0060 o          1 W7A      -0.608000
      8 N1          -4.9530     1.4770     0.5230 ns         1 W7A      -0.471500
      9 C6          -3.5800     1.4710     0.6810 c          1 W7A       0.578200
     10 O6          -3.0140     2.4880     1.0490 o          1 W7A      -0.589000
     11 C5          -2.9110     0.2110     0.3810 cd         1 W7A      -0.295400
     12 CAL         -1.4210     0.1880     0.5460 c3         1 W7A       0.019800
     13 CAM         -0.6860     0.5560    -0.7510 c3         1 W7A      -0.034100
     14 CAN          0.8020     0.4540    -0.5900 ca         1 W7A      -0.044300
     15 CAS          1.5990     1.5820    -0.4210 ca         1 W7A      -0.111000
     16 CAR          2.9700     1.4710    -0.2340 ca         1 W7A      -0.104500
     17 CAO          1.4240    -0.7940    -0.5640 ca         1 W7A      -0.111000
     18 CAP          2.7910    -0.9100    -0.3770 ca         1 W7A      -0.104500
     19 CAQ          3.5920     0.2230    -0.2090 cp         1 W7A      -0.069000
     20 CAT          5.0510     0.1020    -0.0130 cp         1 W7A      -0.008000
     21 CAU          5.9290     1.0410    -0.5580 ca         1 W7A      -0.106000
     22 CAY          7.2990     0.9290    -0.3710 ca         1 W7A      -0.115500
     23 CAX          7.8210    -0.1280     0.3640 ca         1 W7A      -0.124000
     24 CAW          6.9590    -1.0710     0.9090 ca         1 W7A      -0.115500
     25 CAV          5.5890    -0.9560     0.7240 ca         1 W7A      -0.106000
     26 H2          -5.4320     2.3410     0.7420 hn         1 W7A       0.318500
     27 H4          -1.1400     0.8990     1.3250 hc         1 W7A       0.057200
     28 H5          -1.0950    -0.7950     0.8740 hc         1 W7A       0.057200
     29 H6          -1.0200    -0.1200    -1.5400 hc         1 W7A       0.054700
     30 H7          -0.9610     1.5680    -1.0550 hc         1 W7A       0.054700
     31 H8           1.1440     2.5660    -0.4300 ha         1 W7A       0.129500
     32 H9           3.5570     2.3690    -0.0870 ha         1 W7A       0.103000
     33 H10          0.8240    -1.6870    -0.6980 ha         1 W7A       0.129500
     34 H11          3.2430    -1.8950    -0.3830 ha         1 W7A       0.103000
     35 H12          5.5410     1.8610    -1.1500 ha         1 W7A       0.115500
     36 H13          7.9600     1.6660    -0.8070 ha         1 W7A       0.104000
     37 H14          8.8890    -0.2170     0.5100 ha         1 W7A       0.102000
     38 H15          7.3530    -1.8970     1.4870 ha         1 W7A       0.104000
     39 H16          4.9310    -1.6880     1.1750 ha         1 W7A       0.115500
     40 H17         -5.5200    -1.5200    -0.4810 hn         1 W7A       0.490000
@<TRIPOS>BOND
     1     1     2 1   
     2     2     3 1   
     3     2     4 1   
     4     4     5 1   
     5     4    11 2   
     6     5     6 1   
     7     5    40 1   
     8     6     7 2   
     9     6     8 1   
    10     8     9 1   
    11     8    26 1   
    12     9    10 2   
    13     9    11 1   
    14    11    12 1   
    15    12    13 1   
    16    12    27 1   
    17    12    28 1   
    18    13    14 1   
    19    13    29 1   
    20    13    30 1   
    21    14    15 ar  
    22    14    17 ar  
    23    15    16 ar  
    24    15    31 1   
    25    16    19 ar  
    26    16    32 1   
    27    17    18 ar  
    28    17    33 1   
    29    18    19 ar  
    30    18    34 1   
    31    19    20 1   
    32    20    21 ar  
    33    20    25 ar  
    34    21    22 ar  
    35    21    35 1   
    36    22    23 ar  
    37    22    36 1   
    38    23    24 ar  
    39    23    37 1   
    40    24    25 ar  
    41    24    38 1   
    42    25    39 1   
@<TRIPOS>SUBSTRUCTURE
     1 W7A         1 TEMP              0 ****  ****    0 ROOT
