@<TRIPOS>MOLECULE
W7B
   36    38     1     0     0
SMALL
bcc


@<TRIPOS>ATOM
      1 OAJ         -2.9130    -3.0700    -0.1760 o          1 W7B      -0.795800
      2 CAI         -2.0230    -2.2020    -0.1250 c          1 W7B       0.930800
      3 OAK         -0.8000    -2.3560    -0.2110 o          1 W7B      -0.795800
      4 C4          -2.5540    -0.7660     0.0460 cc         1 W7B       0.028400
      5 N3          -3.9070    -0.7020    -0.1470 ns         1 W7B      -0.448100
      6 C2          -4.6610     0.4250    -0.0870 c          1 W7B       0.815500
      7 O2          -5.8650     0.4470    -0.2630 o          1 W7B      -0.683500
      8 N1          -3.9260     1.5480     0.1890 ns         1 W7B      -0.605500
      9 C6          -2.5640     1.6150     0.4140 c          1 W7B       0.719700
     10 O6          -2.0460     2.6960     0.6450 o          1 W7B      -0.663500
     11 C5          -1.8440     0.3480     0.3490 cd         1 W7B      -0.294400
     12 CAL         -0.3650     0.4250     0.5920 c3         1 W7B       0.019800
     13 CAM          0.4080     0.7600    -0.6930 c3         1 W7B      -0.038100
     14 CAN          1.8570     1.0690    -0.4340 ca         1 W7B      -0.033300
     15 CAS          2.8260     0.0390    -0.2470 ca         1 W7B      -0.035000
     16 CAU          2.4940    -1.3370    -0.3160 ca         1 W7B      -0.092000
     17 CAT          3.4490    -2.3020    -0.1410 ca         1 W7B      -0.145000
     18 CAW          4.7890    -1.9480     0.1120 ca         1 W7B      -0.128000
     19 CAV          5.1420    -0.6290     0.1890 ca         1 W7B      -0.143000
     20 CAR          4.1780     0.3930     0.0160 ca         1 W7B      -0.037000
     21 CAQ          4.5400     1.7580     0.1010 ca         1 W7B      -0.142000
     22 CAP          3.5960     2.7310    -0.0710 ca         1 W7B      -0.124000
     23 CAO          2.2590     2.3790    -0.3410 ca         1 W7B      -0.148000
     24 H2          -4.4390     2.4190     0.2340 hn         1 W7B       0.319500
     25 H4          -0.1780     1.2120     1.3250 hc         1 W7B       0.057700
     26 H5           0.0030    -0.5050     1.0160 hc         1 W7B       0.057700
     27 H6           0.2940    -0.0660    -1.3970 hc         1 W7B       0.054700
     28 H7          -0.0500     1.6320    -1.1640 hc         1 W7B       0.054700
     29 H8           1.4700    -1.6330    -0.4990 ha         1 W7B       0.189000
     30 H9           3.1740    -3.3480    -0.1980 ha         1 W7B       0.133000
     31 H10          5.5350    -2.7210     0.2460 ha         1 W7B       0.115000
     32 H11          6.1700    -0.3480     0.3860 ha         1 W7B       0.114000
     33 H12          5.5720     2.0180     0.3060 ha         1 W7B       0.116000
     34 H13          3.8700     3.7760    -0.0050 ha         1 W7B       0.117000
     35 H14          1.5270     3.1670    -0.4760 ha         1 W7B       0.133000
     36 H15         -4.3630    -1.5900    -0.3260 hn         1 W7B       0.375500
@<TRIPOS>BOND
     1     1     2 1   
     2     2     3 1   
     3     2     4 1   
     4     4     5 1   
     5     4    11 2   
     6     5     6 1   
     7     5    36 1   
     8     6     7 2   
     9     6     8 1   
    10     8     9 1   
    11     8    24 1   
    12     9    10 2   
    13     9    11 1   
    14    11    12 1   
    15    12    13 1   
    16    12    25 1   
    17    12    26 1   
    18    13    14 1   
    19    13    27 1   
    20    13    28 1   
    21    14    15 ar  
    22    14    23 ar  
    23    15    16 ar  
    24    15    20 ar  
    25    16    17 ar  
    26    16    29 1   
    27    17    18 ar  
    28    17    30 1   
    29    18    19 ar  
    30    18    31 1   
    31    19    20 ar  
    32    19    32 1   
    33    20    21 ar  
    34    21    22 ar  
    35    21    33 1   
    36    22    23 ar  
    37    22    34 1   
    38    23    35 1   
@<TRIPOS>SUBSTRUCTURE
     1 W7B         1 TEMP              0 ****  ****    0 ROOT
