@<TRIPOS>MOLECULE
W7B
   36    38     1     0     0
SMALL
No Charge or Current Charge


@<TRIPOS>ATOM
      1 OAJ         -2.9380    -3.0890    -0.4750 o          1 W7B      -0.690500
      2 CAI         -2.1150    -2.2220    -0.2010 c          1 W7B       0.720200
      3 OAK         -0.9230    -2.4780    -0.1120 o          1 W7B      -0.690500
      4 C4          -2.6320    -0.8070     0.0110 cc         1 W7B       0.028400
      5 N3          -4.0080    -0.6520    -0.1540 ns         1 W7B      -0.494600
      6 C2          -4.7090     0.5010    -0.0430 c          1 W7B       0.606000
      7 O2          -5.9120     0.5570    -0.2040 o          1 W7B      -0.608000
      8 N1          -3.9530     1.5800     0.2600 ns         1 W7B      -0.471500
      9 C6          -2.6090     1.6400     0.4640 c          1 W7B       0.577200
     10 O6          -2.0760     2.7070     0.7260 o          1 W7B      -0.588000
     11 C5          -1.8920     0.3330     0.3360 cd         1 W7B      -0.294400
     12 CAL         -0.3890     0.4070     0.5810 c3         1 W7B       0.019800
     13 CAM          0.4080     0.6980    -0.7110 c3         1 W7B      -0.038100
     14 CAN          1.8810     1.0170    -0.4350 ca         1 W7B      -0.033300
     15 CAS          2.8730     0.0150    -0.2420 ca         1 W7B      -0.035000
     16 CAU          2.5660    -1.3660    -0.2900 ca         1 W7B      -0.074000
     17 CAT          3.5700    -2.3310    -0.0950 ca         1 W7B      -0.127000
     18 CAW          4.8920    -1.9350     0.1510 ca         1 W7B      -0.110000
     19 CAV          5.2140    -0.5710     0.2040 ca         1 W7B      -0.125000
     20 CAR          4.2150     0.4020     0.0100 ca         1 W7B      -0.037000
     21 CAQ          4.5620     1.7630     0.0710 ca         1 W7B      -0.124000
     22 CAP          3.5830     2.7480    -0.1140 ca         1 W7B      -0.106000
     23 CAO          2.2540     2.3760    -0.3640 ca         1 W7B      -0.130000
     24 H2          -4.4500     2.4530     0.3450 hn         1 W7B       0.319500
     25 H4          -0.1580     1.1930     1.3100 hc         1 W7B       0.057700
     26 H5          -0.0120    -0.5050     1.0540 hc         1 W7B       0.057700
     27 H6           0.3050    -0.1380    -1.4110 hc         1 W7B       0.054700
     28 H7          -0.0610     1.5500    -1.2180 hc         1 W7B       0.054700
     29 H8           1.5550    -1.7120    -0.4760 ha         1 W7B       0.171000
     30 H9           3.3190    -3.3890    -0.1350 ha         1 W7B       0.115000
     31 H10          5.6670    -2.6840     0.3010 ha         1 W7B       0.097000
     32 H11          6.2410    -0.2710     0.3960 ha         1 W7B       0.096000
     33 H12          5.5900     2.0590     0.2650 ha         1 W7B       0.098000
     34 H13          3.8540     3.8000    -0.0640 ha         1 W7B       0.099000
     35 H14          1.5060     3.1530    -0.5020 ha         1 W7B       0.115000
     36 H15         -4.5640    -1.4690    -0.3880 hn         1 W7B       0.489000
@<TRIPOS>BOND
     1     1     2 1   
     2     2     3 1   
     3     2     4 1   
     4     4     5 1   
     5     4    11 2   
     6     5     6 1   
     7     5    36 1   
     8     6     7 2   
     9     6     8 1   
    10     8     9 1   
    11     8    24 1   
    12     9    10 2   
    13     9    11 1   
    14    11    12 1   
    15    12    13 1   
    16    12    25 1   
    17    12    26 1   
    18    13    14 1   
    19    13    27 1   
    20    13    28 1   
    21    14    15 ar  
    22    14    23 ar  
    23    15    16 ar  
    24    15    20 ar  
    25    16    17 ar  
    26    16    29 1   
    27    17    18 ar  
    28    17    30 1   
    29    18    19 ar  
    30    18    31 1   
    31    19    20 ar  
    32    19    32 1   
    33    20    21 ar  
    34    21    22 ar  
    35    21    33 1   
    36    22    23 ar  
    37    22    34 1   
    38    23    35 1   
@<TRIPOS>SUBSTRUCTURE
     1 W7B         1 TEMP              0 ****  ****    0 ROOT
