@<TRIPOS>MOLECULE
W7C
   40    42     1     0     0
SMALL
No Charge or Current Charge


@<TRIPOS>ATOM
      1 OAB          2.1200     2.6780    -0.0180 o          1 W7C      -0.688000
      2 CAQ          3.2840     2.3150    -0.1030 c          1 W7C       0.718200
      3 OAE          4.1900     3.1120    -0.3280 o          1 W7C      -0.688000
      4 CAT          3.6640     0.8490     0.0530 cc         1 W7C       0.026400
      5 NAN          5.0210     0.5690    -0.1030 ns         1 W7C      -0.494600
      6 CAV          5.6060    -0.6510    -0.0360 c          1 W7C       0.606000
      7 OAC          6.8010    -0.8150    -0.1850 o          1 W7C      -0.609000
      8 NAO          4.7450    -1.6640     0.2080 ns         1 W7C      -0.471500
      9 CAW          3.3980    -1.6020     0.3940 c          1 W7C       0.577200
     10 OAD          2.7600    -2.6220     0.6010 o          1 W7C      -0.588000
     11 CAU          2.8150    -0.2280     0.3180 cd         1 W7C      -0.294400
     12 CAM          1.3090    -0.1550     0.5410 c3         1 W7C       0.018800
     13 CAL          0.5150    -0.2270    -0.7800 c3         1 W7C      -0.036100
     14 CAR         -0.9870    -0.1190    -0.5540 ca         1 W7C      -0.033300
     15 CAK         -1.7790    -1.2780    -0.4620 ca         1 W7C      -0.128000
     16 CAH         -1.5940     1.1430    -0.4260 ca         1 W7C      -0.101000
     17 CAJ         -2.9790     1.2480    -0.2120 ca         1 W7C      -0.095000
     18 CAY         -3.7800     0.0880    -0.1220 ca         1 W7C      -0.063000
     19 CAX         -3.1670    -1.1810    -0.2480 ca         1 W7C      -0.008000
     20 CAI         -3.9430    -2.3500    -0.1600 ca         1 W7C      -0.132000
     21 CAF         -5.3260    -2.2650     0.0530 ca         1 W7C      -0.086000
     22 CAG         -5.9440    -1.0100     0.1800 ca         1 W7C      -0.231000
     23 CAS         -5.1770     0.1750     0.0940 ca         1 W7C       0.154100
     24 OAP         -5.7610     1.4240     0.2150 os         1 W7C      -0.339100
     25 CAA         -7.1720     1.6010     0.4350 c3         1 W7C       0.151900
     26 H2           5.6580     1.3380    -0.2930 hn         1 W7C       0.490000
     27 H3           5.1540    -2.5830     0.2590 hn         1 W7C       0.319500
     28 H4           0.9680    -0.9680     1.1940 hc         1 W7C       0.057700
     29 H5           1.0350     0.7540     1.0870 hc         1 W7C       0.057700
     30 H6           0.8500     0.5760    -1.4470 hc         1 W7C       0.055200
     31 H7           0.7560    -1.1670    -1.2920 hc         1 W7C       0.055200
     32 H8          -1.3140    -2.2570    -0.5560 ha         1 W7C       0.113000
     33 H9          -0.9900     2.0450    -0.4900 ha         1 W7C       0.149000
     34 H10         -3.4220     2.2370    -0.1170 ha         1 W7C       0.120000
     35 H11         -3.4740    -3.3270    -0.2570 ha         1 W7C       0.110000
     36 H12         -5.9210    -3.1740     0.1200 ha         1 W7C       0.098000
     37 H13         -7.0160    -0.9790     0.3440 ha         1 W7C       0.104000
     38 H14         -7.4140     2.6690     0.5000 h1         1 W7C       0.035033
     39 H15         -7.7520     1.1700    -0.3910 h1         1 W7C       0.035033
     40 H16         -7.4830     1.1240     1.3730 h1         1 W7C       0.035033
@<TRIPOS>BOND
     1     1     2 1   
     2     2     3 1   
     3     2     4 1   
     4     4     5 1   
     5     4    11 2   
     6     5     6 1   
     7     5    26 1   
     8     6     7 2   
     9     6     8 1   
    10     8     9 1   
    11     8    27 1   
    12     9    10 2   
    13     9    11 1   
    14    11    12 1   
    15    12    13 1   
    16    12    28 1   
    17    12    29 1   
    18    13    14 1   
    19    13    30 1   
    20    13    31 1   
    21    14    15 ar  
    22    14    16 ar  
    23    15    19 ar  
    24    15    32 1   
    25    16    17 ar  
    26    16    33 1   
    27    17    18 ar  
    28    17    34 1   
    29    18    19 ar  
    30    18    23 ar  
    31    19    20 ar  
    32    20    21 ar  
    33    20    35 1   
    34    21    22 ar  
    35    21    36 1   
    36    22    23 ar  
    37    22    37 1   
    38    23    24 1   
    39    24    25 1   
    40    25    38 1   
    41    25    39 1   
    42    25    40 1   
@<TRIPOS>SUBSTRUCTURE
     1 W7C         1 TEMP              0 ****  ****    0 ROOT
