@<TRIPOS>MOLECULE
W7C
   40    42     1     0     0
SMALL
abcg2


@<TRIPOS>ATOM
      1 OAB          1.9500     2.5650    -0.2580 o          1 W7C      -0.688000
      2 CAQ          3.1560     2.2970    -0.2530 c          1 W7C       0.718200
      3 OAE          4.1160     3.0630    -0.4520 o          1 W7C      -0.688000
      4 CAT          3.5680     0.8340     0.0130 cc         1 W7C       0.026400
      5 NAN          4.9150     0.6520    -0.1410 ns         1 W7C      -0.494600
      6 CAV          5.5740    -0.5250     0.0060 c          1 W7C       0.606000
      7 OAC          6.7770    -0.6520    -0.1330 o          1 W7C      -0.609000
      8 NAO          4.7460    -1.5690     0.3240 ns         1 W7C      -0.471500
      9 CAW          3.3760    -1.5170     0.5040 c          1 W7C       0.577200
     10 OAD          2.7650    -2.5410     0.7670 o          1 W7C      -0.588000
     11 CAU          2.7630    -0.2030     0.3550 cd         1 W7C      -0.294400
     12 CAM          1.2790    -0.1330     0.5530 c3         1 W7C       0.018800
     13 CAL          0.5090    -0.3780    -0.7520 c3         1 W7C      -0.036100
     14 CAR         -0.9730    -0.2520    -0.5530 ca         1 W7C      -0.033300
     15 CAK         -1.7990    -1.3460    -0.5430 ca         1 W7C      -0.128000
     16 CAH         -1.5400     1.0250    -0.3350 ca         1 W7C      -0.101000
     17 CAJ         -2.8820     1.1800    -0.1170 ca         1 W7C      -0.095000
     18 CAY         -3.7440     0.0590    -0.1030 ca         1 W7C      -0.063000
     19 CAX         -3.1910    -1.2280    -0.3210 ca         1 W7C      -0.008000
     20 CAI         -4.0360    -2.3650    -0.3140 ca         1 W7C      -0.132000
     21 CAF         -5.3750    -2.2160    -0.0950 ca         1 W7C      -0.086000
     22 CAG         -5.9460    -0.9440     0.1240 ca         1 W7C      -0.231000
     23 CAS         -5.1490     0.1760     0.1210 ca         1 W7C       0.154100
     24 OAP         -5.5960     1.4270     0.3180 os         1 W7C      -0.339100
     25 CAA         -6.9800     1.6240     0.5310 c3         1 W7C       0.151900
     26 H2           5.4390     1.4890    -0.3710 hn         1 W7C       0.490000
     27 H3           5.1850    -2.4740     0.4320 hn         1 W7C       0.319500
     28 H4           0.9840    -0.8880     1.2840 hc         1 W7C       0.057700
     29 H5           1.0020     0.8360     0.9590 hc         1 W7C       0.057700
     30 H6           0.8440     0.3500    -1.4940 hc         1 W7C       0.055200
     31 H7           0.7500    -1.3700    -1.1400 hc         1 W7C       0.055200
     32 H8          -1.3880    -2.3350    -0.7120 ha         1 W7C       0.113000
     33 H9          -0.8930     1.8940    -0.3460 ha         1 W7C       0.149000
     34 H10         -3.2810     2.1720     0.0440 ha         1 W7C       0.120000
     35 H11         -3.6090    -3.3450    -0.4840 ha         1 W7C       0.110000
     36 H12         -6.0250    -3.0810    -0.0860 ha         1 W7C       0.098000
     37 H13         -7.0110    -0.8760     0.2920 ha         1 W7C       0.104000
     38 H14         -7.1240     2.6930     0.6620 h1         1 W7C       0.035033
     39 H15         -7.5730     1.2880    -0.3240 h1         1 W7C       0.035033
     40 H16         -7.3300     1.1070     1.4270 h1         1 W7C       0.035033
@<TRIPOS>BOND
     1     1     2 1   
     2     2     3 1   
     3     2     4 1   
     4     4     5 1   
     5     4    11 2   
     6     5     6 1   
     7     5    26 1   
     8     6     7 2   
     9     6     8 1   
    10     8     9 1   
    11     8    27 1   
    12     9    10 2   
    13     9    11 1   
    14    11    12 1   
    15    12    13 1   
    16    12    28 1   
    17    12    29 1   
    18    13    14 1   
    19    13    30 1   
    20    13    31 1   
    21    14    15 ar  
    22    14    16 ar  
    23    15    19 ar  
    24    15    32 1   
    25    16    17 ar  
    26    16    33 1   
    27    17    18 ar  
    28    17    34 1   
    29    18    19 ar  
    30    18    23 ar  
    31    19    20 ar  
    32    20    21 ar  
    33    20    35 1   
    34    21    22 ar  
    35    21    36 1   
    36    22    23 ar  
    37    22    37 1   
    38    23    24 1   
    39    24    25 1   
    40    25    38 1   
    41    25    39 1   
    42    25    40 1   
@<TRIPOS>SUBSTRUCTURE
     1 W7C         1 TEMP              0 ****  ****    0 ROOT
