@<TRIPOS>MOLECULE
W7D
   40    42     1     0     0
SMALL
abcg2


@<TRIPOS>ATOM
      1 O            2.2870    -2.6280     0.1710 o          1 W7D      -0.688500
      2 C            3.4180    -2.1310     0.1650 c          1 W7D       0.719200
      3 OXT          4.5120    -2.7040     0.3160 o          1 W7D      -0.688500
      4 CA           3.5320    -0.6060    -0.0340 cc         1 W7D       0.026400
      5 N            4.8110    -0.1650     0.1700 ns         1 W7D      -0.494600
      6 CAR          5.2230     1.1250     0.0920 c          1 W7D       0.606000
      7 OAC          6.3710     1.4840     0.2800 o          1 W7D      -0.610000
      8 ND2          4.2110     1.9940    -0.2200 ns         1 W7D      -0.471500
      9 CG           2.8850     1.6770    -0.4540 c          1 W7D       0.578200
     10 OD1          2.0920     2.5680    -0.7130 o          1 W7D      -0.587000
     11 CB           2.5440     0.2620    -0.3660 cd         1 W7D      -0.293400
     12 CAM          1.1070    -0.0920    -0.6070 c3         1 W7D       0.018800
     13 CAL          0.2760    -0.0400     0.6820 c3         1 W7D      -0.033100
     14 CAT         -1.1390    -0.4840     0.4490 ca         1 W7D      -0.061300
     15 CAK         -2.1730     0.4130     0.3630 ca         1 W7D      -0.092000
     16 CAW         -3.5000    -0.0100     0.1130 ca         1 W7D      -0.055000
     17 CAH         -1.4140    -1.8620     0.2790 ca         1 W7D      -0.073000
     18 CAJ         -2.6850    -2.3000     0.0380 ca         1 W7D      -0.132000
     19 CAV         -3.7660    -1.3920    -0.0540 ca         1 W7D      -0.016000
     20 CAI         -5.0880    -1.8330    -0.3010 ca         1 W7D      -0.134000
     21 CAF         -6.1040    -0.9240    -0.3800 ca         1 W7D      -0.086000
     22 CAG         -5.8630     0.4560    -0.2160 ca         1 W7D      -0.231000
     23 CAU         -4.5890     0.9100     0.0250 ca         1 W7D       0.156100
     24 OAP         -4.2620     2.2030     0.1960 os         1 W7D      -0.335100
     25 CAA         -5.2890     3.1730     0.1440 c3         1 W7D       0.151900
     26 H2           5.4870    -0.8910     0.3800 hn         1 W7D       0.489000
     27 H3           4.4620     2.9730    -0.2770 hn         1 W7D       0.318500
     28 H4           0.6830     0.6100    -1.3280 hc         1 W7D       0.056700
     29 H5           1.0310    -1.0830    -1.0430 hc         1 W7D       0.056700
     30 H6           0.7480    -0.6890     1.4210 hc         1 W7D       0.054200
     31 H7           0.2880     0.9750     1.0860 hc         1 W7D       0.054200
     32 H8          -1.9640     1.4670     0.4940 ha         1 W7D       0.126000
     33 H9          -0.5990    -2.5720     0.3460 ha         1 W7D       0.150000
     34 H10         -2.8820    -3.3590    -0.0840 ha         1 W7D       0.107000
     35 H11         -5.2790    -2.8910    -0.4270 ha         1 W7D       0.107000
     36 H12         -7.1170    -1.2540    -0.5710 ha         1 W7D       0.097000
     37 H13         -6.6980     1.1390    -0.2840 ha         1 W7D       0.104000
     38 H14         -5.7820     3.1930    -0.8310 h1         1 W7D       0.035033
     39 H15         -6.0440     3.0060     0.9170 h1         1 W7D       0.035033
     40 H16         -4.8140     4.1360     0.3170 h1         1 W7D       0.035033
@<TRIPOS>BOND
     1     1     2 1   
     2     2     3 1   
     3     2     4 1   
     4     4     5 1   
     5     4    11 2   
     6     5     6 1   
     7     5    26 1   
     8     6     7 2   
     9     6     8 1   
    10     8     9 1   
    11     8    27 1   
    12     9    10 2   
    13     9    11 1   
    14    11    12 1   
    15    12    13 1   
    16    12    28 1   
    17    12    29 1   
    18    13    14 1   
    19    13    30 1   
    20    13    31 1   
    21    14    15 ar  
    22    14    17 ar  
    23    15    16 ar  
    24    15    32 1   
    25    16    19 ar  
    26    16    23 ar  
    27    17    18 ar  
    28    17    33 1   
    29    18    19 ar  
    30    18    34 1   
    31    19    20 ar  
    32    20    21 ar  
    33    20    35 1   
    34    21    22 ar  
    35    21    36 1   
    36    22    23 ar  
    37    22    37 1   
    38    23    24 1   
    39    24    25 1   
    40    25    38 1   
    41    25    39 1   
    42    25    40 1   
@<TRIPOS>SUBSTRUCTURE
     1 W7D         1 TEMP              0 ****  ****    0 ROOT
