@<TRIPOS>MOLECULE
W7D
   40    42     1     0     0
SMALL
No Charge or Current Charge


@<TRIPOS>ATOM
      1 O            2.4750    -2.7210    -0.0310 o          1 W7D      -0.688500
      2 C            3.5370    -2.1250     0.0790 c          1 W7D       0.719200
      3 OXT          4.5840    -2.7190     0.3140 o          1 W7D      -0.688500
      4 CA           3.6060    -0.6100    -0.0580 cc         1 W7D       0.026400
      5 N            4.8720    -0.0560     0.1260 ns         1 W7D      -0.494600
      6 CAR          5.1920     1.2590     0.0790 c          1 W7D       0.606000
      7 OAC          6.3230     1.6670     0.2510 o          1 W7D      -0.610000
      8 ND2          4.1430     2.0750    -0.1730 ns         1 W7D      -0.471500
      9 CG           2.8410     1.7360    -0.3840 c          1 W7D       0.578200
     10 OD1          2.0080     2.6040    -0.5940 o          1 W7D      -0.587000
     11 CB           2.5550     0.2690    -0.3310 cd         1 W7D      -0.293400
     12 CAM          1.1020    -0.1120    -0.5820 c3         1 W7D       0.018800
     13 CAL          0.2880    -0.2230     0.7250 c3         1 W7D      -0.033100
     14 CAT         -1.1530    -0.6430     0.4700 ca         1 W7D      -0.061300
     15 CAK         -2.1690     0.3260     0.3630 ca         1 W7D      -0.092000
     16 CAW         -3.5080    -0.0560     0.1220 ca         1 W7D      -0.055000
     17 CAH         -1.4760    -2.0050     0.3310 ca         1 W7D      -0.073000
     18 CAJ         -2.8030    -2.3960     0.0910 ca         1 W7D      -0.132000
     19 CAV         -3.8190    -1.4290    -0.0130 ca         1 W7D      -0.016000
     20 CAI         -5.1450    -1.8320    -0.2540 ca         1 W7D      -0.134000
     21 CAF         -6.1650    -0.8750    -0.3610 ca         1 W7D      -0.086000
     22 CAG         -5.8660     0.4900    -0.2280 ca         1 W7D      -0.231000
     23 CAU         -4.5380     0.9110     0.0140 ca         1 W7D       0.156100
     24 OAP         -4.2180     2.2510     0.1490 os         1 W7D      -0.335100
     25 CAA         -5.2020     3.2950     0.0520 c3         1 W7D       0.151900
     26 H2           5.6520    -0.6780     0.3210 hn         1 W7D       0.489000
     27 H3           4.3520     3.0590    -0.2090 hn         1 W7D       0.318500
     28 H4           0.6100     0.6200    -1.2340 hc         1 W7D       0.056700
     29 H5           1.0330    -1.0510    -1.1410 hc         1 W7D       0.056700
     30 H6           0.7750    -0.9440     1.3930 hc         1 W7D       0.054200
     31 H7           0.3170     0.7410     1.2470 hc         1 W7D       0.054200
     32 H8          -1.9090     1.3770     0.4680 ha         1 W7D       0.126000
     33 H9          -0.6960    -2.7610     0.4060 ha         1 W7D       0.150000
     34 H10         -3.0400    -3.4530    -0.0150 ha         1 W7D       0.107000
     35 H11         -5.3860    -2.8870    -0.3590 ha         1 W7D       0.107000
     36 H12         -7.1880    -1.1930    -0.5470 ha         1 W7D       0.097000
     37 H13         -6.6790     1.2050    -0.3160 ha         1 W7D       0.104000
     38 H14         -5.6850     3.2860    -0.9330 h1         1 W7D       0.035033
     39 H15         -5.9720     3.1780     0.8250 h1         1 W7D       0.035033
     40 H16         -4.7290     4.2760     0.1900 h1         1 W7D       0.035033
@<TRIPOS>BOND
     1     1     2 1   
     2     2     3 1   
     3     2     4 1   
     4     4     5 1   
     5     4    11 2   
     6     5     6 1   
     7     5    26 1   
     8     6     7 2   
     9     6     8 1   
    10     8     9 1   
    11     8    27 1   
    12     9    10 2   
    13     9    11 1   
    14    11    12 1   
    15    12    13 1   
    16    12    28 1   
    17    12    29 1   
    18    13    14 1   
    19    13    30 1   
    20    13    31 1   
    21    14    15 ar  
    22    14    17 ar  
    23    15    16 ar  
    24    15    32 1   
    25    16    19 ar  
    26    16    23 ar  
    27    17    18 ar  
    28    17    33 1   
    29    18    19 ar  
    30    18    34 1   
    31    19    20 ar  
    32    20    21 ar  
    33    20    35 1   
    34    21    22 ar  
    35    21    36 1   
    36    22    23 ar  
    37    22    37 1   
    38    23    24 1   
    39    24    25 1   
    40    25    38 1   
    41    25    39 1   
    42    25    40 1   
@<TRIPOS>SUBSTRUCTURE
     1 W7D         1 TEMP              0 ****  ****    0 ROOT
