@<TRIPOS>MOLECULE
W7E
   60    62     1     0     0
SMALL
No Charge or Current Charge


@<TRIPOS>ATOM
      1 C28         -4.4090    -0.0340    -1.1330 ca         1 W7E      -0.179500
      2 C24         -4.4650    -1.1240     1.0400 ca         1 W7E      -0.179500
      3 C27         -5.1310     1.0530    -0.6100 ca         1 W7E      -0.078500
      4 C25         -5.1870    -0.0350     1.5630 ca         1 W7E      -0.078500
      5 C5           7.0550     2.8040    -0.7910 ca         1 W7E      -0.025000
      6 C6           5.8450     2.0870    -0.9010 ca         1 W7E      -0.165000
      7 C8           6.6370     0.4710     0.7400 ca         1 W7E      -0.109000
      8 C26         -5.5240     1.0590     0.7430 ca         1 W7E      -0.025300
      9 C4           8.0490     2.3460     0.0880 ca         1 W7E       0.056400
     10 C23         -4.0720    -1.1250    -0.3160 ca         1 W7E       0.072100
     11 C7           5.6220     0.9180    -0.1390 ca         1 W7E       0.002000
     12 C9           7.8310     1.2040     0.8300 ca         1 W7E      -0.145000
     13 C2           9.9570     2.2640     1.1760 cc         1 W7E       0.388200
     14 C12          3.8250    -0.8660     0.3020 c          1 W7E       0.612100
     15 C31         -8.5590     3.0310     2.2310 c          1 W7E       0.741000
     16 C34         -8.5340     1.7720     0.1270 c          1 W7E       0.741000
     17 C17          0.1880    -3.4970    -0.8730 c          1 W7E       0.644100
     18 C1          11.3390     2.6510     1.6170 c3         1 W7E      -0.111400
     19 C21         -2.9640    -3.3250    -0.1280 c3         1 W7E       0.139600
     20 C29         -6.3010     2.2390     1.3180 c3         1 W7E      -0.000100
     21 C14          2.4310    -1.2380    -0.2050 c3         1 W7E      -0.197400
     22 C20         -2.1880    -4.2780    -1.0660 c3         1 W7E       0.110000
     23 C15          2.4880    -2.5170    -1.0590 c3         1 W7E       0.133000
     24 C30         -7.8190     1.9470     1.4610 c3         1 W7E      -0.306700
     25 N3           9.2730     2.9780     0.2700 nd         1 W7E      -0.527100
     26 N11          4.3780     0.2520    -0.3100 ns         1 W7E      -0.146000
     27 N19         -0.9520    -3.6900    -1.6010 ns         1 W7E      -0.504900
     28 N16          1.1720    -2.8720    -1.5900 ns         1 W7E      -0.527900
     29 O13          4.3670    -1.5050     1.1950 o          1 W7E      -0.585100
     30 O32         -8.4390     4.2000     1.8970 o          1 W7E      -0.769750
     31 O35         -8.4210     2.6280    -0.7370 o          1 W7E      -0.769750
     32 O18          0.3170    -3.8500     0.2860 o          1 W7E      -0.651100
     33 O33         -9.1870     2.6920     3.2230 o          1 W7E      -0.769750
     34 O36         -9.1610     0.7380    -0.0480 o          1 W7E      -0.769750
     35 O22         -3.3640    -2.1620    -0.8840 os         1 W7E      -0.380100
     36 S10          9.1970     0.8080     1.8580 ss         1 W7E      -0.007200
     37 H25         -5.4860    -0.0410     2.6090 ha         1 W7E       0.126500
     38 H24         -4.2210    -1.9510     1.7010 ha         1 W7E       0.089000
     39 H27         -5.3880     1.8900    -1.2550 ha         1 W7E       0.126500
     40 H28         -4.1110    -0.0300    -2.1790 ha         1 W7E       0.089000
     41 H8           6.5220    -0.4230     1.3450 ha         1 W7E       0.161000
     42 H291        -5.8980     2.4850     2.3080 hc         1 W7E       0.039200
     43 H292        -6.1480     3.1350     0.7030 hc         1 W7E       0.039200
     44 H11          3.7850     0.6710    -1.0140 hn         1 W7E       0.159000
     45 H11C        11.4780     2.4450     2.6840 hc         1 W7E       0.055700
     46 H12C        12.0930     2.0860     1.0590 hc         1 W7E       0.055700
     47 H13C        11.5220     3.7200     1.4530 hc         1 W7E       0.055700
     48 H141         1.7830    -1.4220     0.6590 hc         1 W7E       0.080200
     49 H142         2.0190    -0.4270    -0.8160 hc         1 W7E       0.080200
     50 H30         -7.9510     1.0130     2.0220 hc         1 W7E       0.018700
     51 H16          0.9610    -2.6310    -2.5500 hn         1 W7E       0.306500
     52 H19         -0.9590    -3.3450    -2.5520 hn         1 W7E       0.312500
     53 H151         3.1760    -2.3680    -1.9030 h1         1 W7E       0.060700
     54 H152         2.8710    -3.3530    -0.4570 h1         1 W7E       0.060700
     55 H201        -1.9350    -5.1930    -0.5160 h1         1 W7E       0.059200
     56 H202        -2.8360    -4.5630    -1.9050 h1         1 W7E       0.059200
     57 H211        -3.8450    -3.8500     0.2650 h1         1 W7E       0.041200
     58 H212        -2.3240    -3.0400     0.7170 h1         1 W7E       0.041200
     59 H5           7.2180     3.7020    -1.3800 ha         1 W7E       0.131000
     60 H6           5.0790     2.4460    -1.5840 ha         1 W7E       0.121000
@<TRIPOS>BOND
     1     1     3 ar  
     2     1    10 ar  
     3     1    40 1   
     4     2     4 ar  
     5     2    10 ar  
     6     2    38 1   
     7     3     8 ar  
     8     3    39 1   
     9     4     8 ar  
    10     4    37 1   
    11     5     6 ar  
    12     5     9 ar  
    13     5    59 1   
    14     6    11 ar  
    15     6    60 1   
    16     7    11 ar  
    17     7    12 ar  
    18     7    41 1   
    19     8    20 1   
    20     9    12 ar  
    21     9    25 1   
    22    10    35 1   
    23    11    26 1   
    24    12    36 1   
    25    13    18 1   
    26    13    25 2   
    27    13    36 1   
    28    14    21 1   
    29    14    26 1   
    30    14    29 2   
    31    15    24 1   
    32    15    30 1   
    33    15    33 1   
    34    16    24 1   
    35    16    31 1   
    36    16    34 1   
    37    17    27 1   
    38    17    28 1   
    39    17    32 2   
    40    18    45 1   
    41    18    46 1   
    42    18    47 1   
    43    19    22 1   
    44    19    35 1   
    45    19    57 1   
    46    19    58 1   
    47    20    24 1   
    48    20    42 1   
    49    20    43 1   
    50    21    23 1   
    51    21    48 1   
    52    21    49 1   
    53    22    27 1   
    54    22    55 1   
    55    22    56 1   
    56    23    28 1   
    57    23    53 1   
    58    23    54 1   
    59    24    50 1   
    60    26    44 1   
    61    27    52 1   
    62    28    51 1   
@<TRIPOS>SUBSTRUCTURE
     1 W7E         1 TEMP              0 ****  ****    0 ROOT
