@<TRIPOS>MOLECULE
W7E
   60    62     1     0     0
SMALL
abcg2


@<TRIPOS>ATOM
      1 C28         -4.5800    -0.4670    -1.1850 ca         1 W7E      -0.179500
      2 C24         -3.9820    -1.0040     1.0720 ca         1 W7E      -0.179500
      3 C27         -5.1620     0.7090    -0.7500 ca         1 W7E      -0.078500
      4 C25         -4.5520     0.1950     1.4870 ca         1 W7E      -0.078500
      5 C5           6.2880     3.1370     0.1780 ca         1 W7E      -0.025000
      6 C6           5.1910     2.3460    -0.0810 ca         1 W7E      -0.165000
      7 C8           6.4100     0.3300     0.4850 ca         1 W7E      -0.109000
      8 C26         -5.1550     1.0750     0.5970 ca         1 W7E      -0.025300
      9 C4           7.4740     2.5390     0.5950 ca         1 W7E       0.056400
     10 C23         -3.9860    -1.3350    -0.2800 ca         1 W7E       0.072100
     11 C7           5.2350     0.9460     0.0650 ca         1 W7E       0.002000
     12 C9           7.5060     1.1460     0.7410 ca         1 W7E      -0.145000
     13 C2           9.5680     2.3650     1.2520 cc         1 W7E       0.388200
     14 C12          3.8040    -1.0740    -0.2030 c          1 W7E       0.612100
     15 C31         -7.8600     3.5320     1.9870 c          1 W7E       0.741000
     16 C34         -8.0970     1.7740     0.2480 c          1 W7E       0.741000
     17 C17          0.1770    -3.7060    -1.0840 c          1 W7E       0.644100
     18 C1          10.9480     2.7440     1.6560 c3         1 W7E      -0.111400
     19 C21         -2.8250    -3.3890     0.0760 c3         1 W7E       0.139600
     20 C29         -5.7660     2.3650     1.0710 c3         1 W7E      -0.000100
     21 C14          2.3910    -1.4510    -0.5840 c3         1 W7E      -0.197400
     22 C20         -2.1390    -4.4360    -0.7780 c3         1 W7E       0.110000
     23 C15          2.3630    -2.6830    -1.4910 c3         1 W7E       0.133000
     24 C30         -7.2420     2.2270     1.4440 c3         1 W7E      -0.306700
     25 N3           8.6500     3.1890     0.8900 nd         1 W7E      -0.527100
     26 N11          4.0580     0.2590    -0.2420 ns         1 W7E      -0.146000
     27 N19         -1.0680    -3.9160    -1.5920 ns         1 W7E      -0.504900
     28 N16          1.0340    -3.0480    -1.9090 ns         1 W7E      -0.527900
     29 O13          4.6260    -1.9110     0.1290 o          1 W7E      -0.585100
     30 O32         -7.1220     4.5240     2.1430 o          1 W7E      -0.769750
     31 O35         -8.0150     2.4850    -0.7780 o          1 W7E      -0.769750
     32 O18          0.5180    -4.1230     0.0190 o          1 W7E      -0.651100
     33 O33         -9.0860     3.4890     2.2310 o          1 W7E      -0.769750
     34 O36         -8.8120     0.7610     0.3830 o          1 W7E      -0.769750
     35 O22         -3.4390    -2.4570    -0.7950 os         1 W7E      -0.380100
     36 S10          9.0920     0.6750     1.2490 ss         1 W7E      -0.007200
     37 H25         -4.5230     0.4420     2.5430 ha         1 W7E       0.126500
     38 H24         -3.5350    -1.6550     1.8130 ha         1 W7E       0.089000
     39 H27         -5.6270     1.3660    -1.4740 ha         1 W7E       0.126500
     40 H28         -4.5880    -0.7220    -2.2380 ha         1 W7E       0.089000
     41 H8           6.4800    -0.7380     0.6030 ha         1 W7E       0.161000
     42 H291        -5.2090     2.7230     1.9390 hc         1 W7E       0.039200
     43 H292        -5.6630     3.1280     0.2990 hc         1 W7E       0.039200
     44 H11          3.2900     0.8440    -0.5350 hn         1 W7E       0.159000
     45 H11C        11.0860     2.6030     2.7290 hc         1 W7E       0.055700
     46 H12C        11.6850     2.1270     1.1490 hc         1 W7E       0.055700
     47 H13C        11.1290     3.7890     1.4180 hc         1 W7E       0.055700
     48 H141         1.8480    -1.6720     0.3400 hc         1 W7E       0.080200
     49 H142         1.8730    -0.6210    -1.0680 hc         1 W7E       0.080200
     50 H30         -7.3270     1.4740     2.2370 hc         1 W7E       0.018700
     51 H16          0.6720    -2.5960    -2.7320 hn         1 W7E       0.306500
     52 H19         -1.3310    -3.4420    -2.4400 hn         1 W7E       0.312500
     53 H151         2.9440    -2.4890    -2.3930 h1         1 W7E       0.060700
     54 H152         2.8310    -3.5270    -0.9880 h1         1 W7E       0.060700
     55 H201        -1.7500    -5.2130    -0.1220 h1         1 W7E       0.059200
     56 H202        -2.8660    -4.9150    -1.4340 h1         1 W7E       0.059200
     57 H211        -3.5710    -3.8690     0.7210 h1         1 W7E       0.041200
     58 H212        -2.0930    -2.8960     0.7240 h1         1 W7E       0.041200
     59 H5           6.2300     4.2110     0.0590 ha         1 W7E       0.131000
     60 H6           4.2700     2.8120    -0.4080 ha         1 W7E       0.121000
@<TRIPOS>BOND
     1     1     3 ar  
     2     1    10 ar  
     3     1    40 1   
     4     2     4 ar  
     5     2    10 ar  
     6     2    38 1   
     7     3     8 ar  
     8     3    39 1   
     9     4     8 ar  
    10     4    37 1   
    11     5     6 ar  
    12     5     9 ar  
    13     5    59 1   
    14     6    11 ar  
    15     6    60 1   
    16     7    11 ar  
    17     7    12 ar  
    18     7    41 1   
    19     8    20 1   
    20     9    12 ar  
    21     9    25 1   
    22    10    35 1   
    23    11    26 1   
    24    12    36 1   
    25    13    18 1   
    26    13    25 2   
    27    13    36 1   
    28    14    21 1   
    29    14    26 1   
    30    14    29 2   
    31    15    24 1   
    32    15    30 1   
    33    15    33 1   
    34    16    24 1   
    35    16    31 1   
    36    16    34 1   
    37    17    27 1   
    38    17    28 1   
    39    17    32 2   
    40    18    45 1   
    41    18    46 1   
    42    18    47 1   
    43    19    22 1   
    44    19    35 1   
    45    19    57 1   
    46    19    58 1   
    47    20    24 1   
    48    20    42 1   
    49    20    43 1   
    50    21    23 1   
    51    21    48 1   
    52    21    49 1   
    53    22    27 1   
    54    22    55 1   
    55    22    56 1   
    56    23    28 1   
    57    23    53 1   
    58    23    54 1   
    59    24    50 1   
    60    26    44 1   
    61    27    52 1   
    62    28    51 1   
@<TRIPOS>SUBSTRUCTURE
     1 W7E         1 TEMP              0 ****  ****    0 ROOT
