@<TRIPOS>MOLECULE
W7F
   40    42     1     0     0
SMALL
No Charge or Current Charge


@<TRIPOS>ATOM
      1 OAB         -0.9220    -2.2820    -0.1500 o          1 W7F      -0.687500
      2 CAQ         -2.1380    -2.2070    -0.2370 c          1 W7F       0.718200
      3 OAE         -2.8230    -3.1840    -0.5240 o          1 W7F      -0.687500
      4 CAT         -2.8600    -0.8880    -0.0070 cc         1 W7F       0.028400
      5 NAN         -4.2440    -0.9360    -0.1730 ns         1 W7F      -0.493600
      6 CAV         -5.1080     0.0980    -0.0480 c          1 W7F       0.605000
      7 OAC         -6.3060    -0.0230    -0.2110 o          1 W7F      -0.610000
      8 NAO         -4.5210     1.2730     0.2700 ns         1 W7F      -0.471500
      9 CAW         -3.2000     1.5290     0.4780 c          1 W7F       0.577200
     10 OAD         -2.8310     2.6600     0.7550 o          1 W7F      -0.588000
     11 CAU         -2.2970     0.3440     0.3360 cd         1 W7F      -0.294400
     12 CAM         -0.8210     0.6350     0.5850 c3         1 W7F       0.019800
     13 CAL         -0.0710     1.0410    -0.7030 c3         1 W7F      -0.037100
     14 CAS          1.3310     1.5910    -0.4210 ca         1 W7F      -0.040300
     15 CAY          2.4680     0.7610    -0.2160 ca         1 W7F       0.001000
     16 CAK          2.3860    -0.6510    -0.2570 ca         1 W7F      -0.123000
     17 CAR          3.5230    -1.4500    -0.0540 ca         1 W7F       0.119100
     18 OAP          3.3650    -2.8200    -0.1110 os         1 W7F      -0.320100
     19 CAA          4.4630    -3.7280     0.0840 c3         1 W7F       0.153900
     20 CAH          4.7690    -0.8420     0.1970 ca         1 W7F      -0.182000
     21 CAJ          4.8670     0.5560     0.2430 ca         1 W7F      -0.087000
     22 CAX          3.7280     1.3570     0.0400 ca         1 W7F      -0.069000
     23 CAI          3.8550     2.7560     0.0950 ca         1 W7F      -0.113000
     24 CAF          2.7330     3.5710    -0.1010 ca         1 W7F      -0.116000
     25 CAG          1.4820     2.9920    -0.3560 ca         1 W7F      -0.121000
     26 H2          -5.1400     2.0610     0.3650 hn         1 W7F       0.318500
     27 H4          -0.7090     1.4440     1.3170 hc         1 W7F       0.058200
     28 H5          -0.3180    -0.2140     1.0580 hc         1 W7F       0.058200
     29 H6          -0.0370     0.1960    -1.3990 hc         1 W7F       0.055700
     30 H7          -0.6650     1.8050    -1.2190 hc         1 W7F       0.055700
     31 H8           1.4440    -1.1550    -0.4440 ha         1 W7F       0.186000
     32 H9           4.9040    -3.5980     1.0810 h1         1 W7F       0.030367
     33 H10          4.1170    -4.7660    -0.0020 h1         1 W7F       0.030367
     34 H11          5.2420    -3.5650    -0.6710 h1         1 W7F       0.030367
     35 H12          5.6660    -1.4330     0.3580 ha         1 W7F       0.103000
     36 H13          5.8320     1.0180     0.4390 ha         1 W7F       0.097000
     37 H14          4.8220     3.2130     0.2920 ha         1 W7F       0.096000
     38 H15          2.8320     4.6540    -0.0550 ha         1 W7F       0.099000
     39 H16          0.6200     3.6400    -0.5030 ha         1 W7F       0.114000
     40 H17         -4.6730    -1.8240    -0.4180 hn         1 W7F       0.489000
@<TRIPOS>BOND
     1     1     2 1   
     2     2     3 1   
     3     2     4 1   
     4     4     5 1   
     5     4    11 2   
     6     5     6 1   
     7     5    40 1   
     8     6     7 2   
     9     6     8 1   
    10     8     9 1   
    11     8    26 1   
    12     9    10 2   
    13     9    11 1   
    14    11    12 1   
    15    12    13 1   
    16    12    27 1   
    17    12    28 1   
    18    13    14 1   
    19    13    29 1   
    20    13    30 1   
    21    14    15 ar  
    22    14    25 ar  
    23    15    16 ar  
    24    15    22 ar  
    25    16    17 ar  
    26    16    31 1   
    27    17    18 1   
    28    17    20 ar  
    29    18    19 1   
    30    19    32 1   
    31    19    33 1   
    32    19    34 1   
    33    20    21 ar  
    34    20    35 1   
    35    21    22 ar  
    36    21    36 1   
    37    22    23 ar  
    38    23    24 ar  
    39    23    37 1   
    40    24    25 ar  
    41    24    38 1   
    42    25    39 1   
@<TRIPOS>SUBSTRUCTURE
     1 W7F         1 TEMP              0 ****  ****    0 ROOT
