@<TRIPOS>MOLECULE
W7F
   40    42     1     0     0
SMALL
abcg2


@<TRIPOS>ATOM
      1 OAB         -0.7820    -2.1590    -0.2950 o          1 W7F      -0.687500
      2 CAQ         -2.0170    -2.1890    -0.2450 c          1 W7F       0.718200
      3 OAE         -2.7670    -3.1700    -0.3890 o          1 W7F      -0.687500
      4 CAT         -2.7570    -0.8610     0.0040 cc         1 W7F       0.028400
      5 NAN         -4.1070    -0.9950    -0.1740 ns         1 W7F      -0.493600
      6 CAV         -5.0220    -0.0000    -0.0520 c          1 W7F       0.605000
      7 OAC         -6.2190    -0.1540    -0.2160 o          1 W7F      -0.610000
      8 NAO         -4.4630     1.2070     0.2720 ns         1 W7F      -0.471500
      9 CAW         -3.1230     1.4720     0.4850 c          1 W7F       0.577200
     10 OAD         -2.7730     2.6080     0.7610 o          1 W7F      -0.588000
     11 CAU         -2.2190     0.3340     0.3540 cd         1 W7F      -0.294400
     12 CAM         -0.7660     0.6250     0.5870 c3         1 W7F       0.019800
     13 CAL         -0.0650     1.1020    -0.6950 c3         1 W7F      -0.037100
     14 CAS          1.3150     1.6430    -0.4410 ca         1 W7F      -0.040300
     15 CAY          2.4320     0.7790    -0.2210 ca         1 W7F       0.001000
     16 CAK          2.3170    -0.6260    -0.2610 ca         1 W7F      -0.123000
     17 CAR          3.4090    -1.4370    -0.0500 ca         1 W7F       0.119100
     18 OAP          3.1990    -2.7680    -0.1070 os         1 W7F      -0.320100
     19 CAA          4.2900    -3.6430     0.0950 c3         1 W7F       0.153900
     20 CAH          4.6750    -0.8650     0.2120 ca         1 W7F      -0.182000
     21 CAJ          4.8050     0.4970     0.2560 ca         1 W7F      -0.087000
     22 CAX          3.7060     1.3550     0.0440 ca         1 W7F      -0.069000
     23 CAI          3.8510     2.7610     0.0900 ca         1 W7F      -0.113000
     24 CAF          2.7720     3.5700    -0.1220 ca         1 W7F      -0.116000
     25 CAG          1.5080     3.0000    -0.3870 ca         1 W7F      -0.121000
     26 H2          -5.1020     1.9860     0.3650 hn         1 W7F       0.318500
     27 H4          -0.6870     1.4120     1.3390 hc         1 W7F       0.058200
     28 H5          -0.2600    -0.2500     0.9830 hc         1 W7F       0.058200
     29 H6          -0.0400     0.2760    -1.4100 hc         1 W7F       0.055700
     30 H7          -0.6650     1.8920    -1.1510 hc         1 W7F       0.055700
     31 H8           1.3570    -1.0910    -0.4500 ha         1 W7F       0.186000
     32 H9           4.7240    -3.5390     1.0930 h1         1 W7F       0.030367
     33 H10          3.8980    -4.6510    -0.0090 h1         1 W7F       0.030367
     34 H11          5.0780    -3.4950    -0.6490 h1         1 W7F       0.030367
     35 H12          5.5460    -1.4830     0.3800 ha         1 W7F       0.103000
     36 H13          5.7770     0.9300     0.4600 ha         1 W7F       0.097000
     37 H14          4.8280     3.1840     0.2960 ha         1 W7F       0.096000
     38 H15          2.8760     4.6460    -0.0900 ha         1 W7F       0.099000
     39 H16          0.6620     3.6580    -0.5510 ha         1 W7F       0.114000
     40 H17         -4.4250    -1.9310    -0.3980 hn         1 W7F       0.489000
@<TRIPOS>BOND
     1     1     2 1   
     2     2     3 1   
     3     2     4 1   
     4     4     5 1   
     5     4    11 2   
     6     5     6 1   
     7     5    40 1   
     8     6     7 2   
     9     6     8 1   
    10     8     9 1   
    11     8    26 1   
    12     9    10 2   
    13     9    11 1   
    14    11    12 1   
    15    12    13 1   
    16    12    27 1   
    17    12    28 1   
    18    13    14 1   
    19    13    29 1   
    20    13    30 1   
    21    14    15 ar  
    22    14    25 ar  
    23    15    16 ar  
    24    15    22 ar  
    25    16    17 ar  
    26    16    31 1   
    27    17    18 1   
    28    17    20 ar  
    29    18    19 1   
    30    19    32 1   
    31    19    33 1   
    32    19    34 1   
    33    20    21 ar  
    34    20    35 1   
    35    21    22 ar  
    36    21    36 1   
    37    22    23 ar  
    38    23    24 ar  
    39    23    37 1   
    40    24    25 ar  
    41    24    38 1   
    42    25    39 1   
@<TRIPOS>SUBSTRUCTURE
     1 W7F         1 TEMP              0 ****  ****    0 ROOT
