@<TRIPOS>MOLECULE
W7G
   34    35     1     0     0
SMALL
No Charge or Current Charge


@<TRIPOS>ATOM
      1 OAB         -2.6810    -3.0860    -0.0450 o          1 W7G      -0.685000
      2 CAO         -1.8240    -2.2310     0.1480 c          1 W7G       0.715200
      3 OAE         -0.6520    -2.5290     0.3280 o          1 W7G      -0.685000
      4 CAR         -2.2730    -0.7760     0.1440 cc         1 W7G       0.026400
      5 NAL         -3.6320    -0.5820    -0.1000 ns         1 W7G      -0.494600
      6 CAT         -4.2770     0.6070    -0.1740 c          1 W7G       0.605000
      7 OAC         -5.4690     0.6950    -0.3920 o          1 W7G      -0.612000
      8 NAM         -3.4780     1.6810     0.0140 ns         1 W7G      -0.471500
      9 CAU         -2.1410     1.7060     0.2660 c          1 W7G       0.576200
     10 OAD         -1.5640     2.7730     0.4060 o          1 W7G      -0.591000
     11 CAS         -1.4880     0.3620     0.3450 cd         1 W7G      -0.290400
     12 CAK          0.0080     0.4010     0.6390 c3         1 W7G       0.017800
     13 CAJ          0.8620     0.4980    -0.6440 c3         1 W7G      -0.022100
     14 CAP          2.3400     0.7470    -0.3400 ca         1 W7G      -0.087300
     15 CAH          2.7990     2.0760    -0.2330 ca         1 W7G      -0.081000
     16 CAF          4.1480     2.3430     0.0500 ca         1 W7G      -0.161000
     17 CAG          5.0520     1.2860     0.2300 ca         1 W7G      -0.091000
     18 CAI          4.6070    -0.0420     0.1280 ca         1 W7G      -0.213000
     19 CAQ          3.2500    -0.3210    -0.1570 ca         1 W7G       0.145100
     20 OAN          2.7820    -1.6180    -0.2590 os         1 W7G      -0.303100
     21 CAA          3.6280    -2.7640    -0.0680 c3         1 W7G       0.151900
     22 H2          -3.9320     2.5790    -0.0390 hn         1 W7G       0.317500
     23 H4           0.2490     1.2570     1.2800 hc         1 W7G       0.060200
     24 H5           0.3290    -0.4640     1.2280 hc         1 W7G       0.060200
     25 H6           0.7290    -0.4140    -1.2370 hc         1 W7G       0.053700
     26 H7           0.4730     1.3140    -1.2660 hc         1 W7G       0.053700
     27 H8           2.1060     2.9040    -0.3670 ha         1 W7G       0.118000
     28 H9           4.4920     3.3710     0.1310 ha         1 W7G       0.101000
     29 H10          6.0970     1.4950     0.4490 ha         1 W7G       0.094000
     30 H11          5.3300    -0.8400     0.2740 ha         1 W7G       0.105000
     31 H12          4.0610    -2.7640     0.9410 h1         1 W7G       0.033700
     32 H13          3.0490    -3.6870    -0.1900 h1         1 W7G       0.033700
     33 H14          4.4430    -2.7730    -0.8030 h1         1 W7G       0.033700
     34 H15         -4.2210    -1.3970    -0.2460 hn         1 W7G       0.489000
@<TRIPOS>BOND
     1     1     2 1   
     2     2     3 1   
     3     2     4 1   
     4     4     5 1   
     5     4    11 2   
     6     5     6 1   
     7     5    34 1   
     8     6     7 2   
     9     6     8 1   
    10     8     9 1   
    11     8    22 1   
    12     9    10 2   
    13     9    11 1   
    14    11    12 1   
    15    12    13 1   
    16    12    23 1   
    17    12    24 1   
    18    13    14 1   
    19    13    25 1   
    20    13    26 1   
    21    14    15 ar  
    22    14    19 ar  
    23    15    16 ar  
    24    15    27 1   
    25    16    17 ar  
    26    16    28 1   
    27    17    18 ar  
    28    17    29 1   
    29    18    19 ar  
    30    18    30 1   
    31    19    20 1   
    32    20    21 1   
    33    21    31 1   
    34    21    32 1   
    35    21    33 1   
@<TRIPOS>SUBSTRUCTURE
     1 W7G         1 TEMP              0 ****  ****    0 ROOT
