@<TRIPOS>MOLECULE
W7G
   34    35     1     0     0
SMALL
bcc


@<TRIPOS>ATOM
      1 OAB         -2.7640    -3.0350     0.1370 o          1 W7G      -0.790300
      2 CAO         -1.8040    -2.2420     0.1880 c          1 W7G       0.925800
      3 OAE         -0.5990    -2.5010     0.2420 o          1 W7G      -0.790300
      4 CAR         -2.2190    -0.7570     0.1620 cc         1 W7G       0.026400
      5 NAL         -3.5570    -0.6140    -0.0880 ns         1 W7G      -0.448100
      6 CAT         -4.2200     0.5650    -0.1920 c          1 W7G       0.814500
      7 OAC         -5.4120     0.6560    -0.4210 o          1 W7G      -0.687500
      8 NAM         -3.4090     1.6540    -0.0130 ns         1 W7G      -0.605500
      9 CAU         -2.0530     1.6450     0.2570 c          1 W7G       0.718700
     10 OAD         -1.4620     2.7040     0.3940 o          1 W7G      -0.666500
     11 CAS         -1.4290     0.3290     0.3540 cd         1 W7G      -0.290400
     12 CAK          0.0460     0.3270     0.6260 c3         1 W7G       0.017800
     13 CAJ          0.8650     0.5400    -0.6570 c3         1 W7G      -0.022100
     14 CAP          2.3210     0.7730    -0.3680 ca         1 W7G      -0.087300
     15 CAH          2.8110     2.0660    -0.2480 ca         1 W7G      -0.099000
     16 CAF          4.1420     2.3250     0.0580 ca         1 W7G      -0.179000
     17 CAG          5.0080     1.2620     0.2470 ca         1 W7G      -0.109000
     18 CAI          4.5490    -0.0470     0.1370 ca         1 W7G      -0.231000
     19 CAQ          3.2120    -0.2940    -0.1660 ca         1 W7G       0.145100
     20 OAN          2.6880    -1.5300    -0.2830 os         1 W7G      -0.279900
     21 CAA          3.5160    -2.6490    -0.0610 c3         1 W7G       0.128700
     22 H2          -3.8510     2.5610    -0.0910 hn         1 W7G       0.317500
     23 H4           0.2690     1.1390     1.3220 hc         1 W7G       0.060200
     24 H5           0.3480    -0.6040     1.0920 hc         1 W7G       0.060200
     25 H6           0.7230    -0.3240    -1.3070 hc         1 W7G       0.053700
     26 H7           0.4750     1.4090    -1.1920 hc         1 W7G       0.053700
     27 H8           2.1250     2.8930    -0.3960 ha         1 W7G       0.136000
     28 H9           4.4940     3.3450     0.1440 ha         1 W7G       0.119000
     29 H10          6.0500     1.4380     0.4810 ha         1 W7G       0.112000
     30 H11          5.2470    -0.8600     0.2870 ha         1 W7G       0.123000
     31 H12          3.9350    -2.6560     0.9500 h1         1 W7G       0.033700
     32 H13          2.8860    -3.5270    -0.1820 h1         1 W7G       0.033700
     33 H14          4.3390    -2.7040    -0.7790 h1         1 W7G       0.033700
     34 H15         -4.0690    -1.4820    -0.1930 hn         1 W7G       0.375500
@<TRIPOS>BOND
     1     1     2 1   
     2     2     3 1   
     3     2     4 1   
     4     4     5 1   
     5     4    11 2   
     6     5     6 1   
     7     5    34 1   
     8     6     7 2   
     9     6     8 1   
    10     8     9 1   
    11     8    22 1   
    12     9    10 2   
    13     9    11 1   
    14    11    12 1   
    15    12    13 1   
    16    12    23 1   
    17    12    24 1   
    18    13    14 1   
    19    13    25 1   
    20    13    26 1   
    21    14    15 ar  
    22    14    19 ar  
    23    15    16 ar  
    24    15    27 1   
    25    16    17 ar  
    26    16    28 1   
    27    17    18 ar  
    28    17    29 1   
    29    18    19 ar  
    30    18    30 1   
    31    19    20 1   
    32    20    21 1   
    33    21    31 1   
    34    21    32 1   
    35    21    33 1   
@<TRIPOS>SUBSTRUCTURE
     1 W7G         1 TEMP              0 ****  ****    0 ROOT
