@<TRIPOS>MOLECULE
W7H
   36    38     1     0     0
SMALL
abcg2


@<TRIPOS>ATOM
      1 OAA         -3.7760    -2.9280    -0.2760 o          1 W7H      -0.688500
      2 CAP         -2.7510    -2.2400    -0.1200 c          1 W7H       0.718200
      3 OAD         -1.5730    -2.6150    -0.1020 o          1 W7H      -0.688500
      4 CAS         -3.0280    -0.7310     0.0500 cc         1 W7H       0.026400
      5 NAN         -4.3470    -0.4330    -0.1600 ns         1 W7H      -0.494600
      6 CAT         -4.8930     0.8080    -0.1100 c          1 W7H       0.606000
      7 OAB         -6.0720     1.0400    -0.3020 o          1 W7H      -0.609000
      8 NAO         -3.9770     1.7860     0.1750 ns         1 W7H      -0.471500
      9 CAU         -2.6260     1.6160     0.4150 c          1 W7H       0.578200
     10 OAC         -1.9310     2.5910     0.6490 o          1 W7H      -0.588000
     11 CAR         -2.1380     0.2430     0.3590 cd         1 W7H      -0.294400
     12 CAM         -0.6720     0.0500     0.6000 c3         1 W7H       0.018800
     13 CAL          0.1460     0.1890    -0.6920 c3         1 W7H      -0.035100
     14 CAQ          1.6060    -0.0650    -0.4570 ca         1 W7H      -0.045300
     15 CAK          2.5250     0.9510    -0.4390 ca         1 W7H      -0.117000
     16 CAW          3.8960     0.7080    -0.1850 ca         1 W7H      -0.034000
     17 CAI          4.8510     1.7510    -0.1670 ca         1 W7H      -0.096000
     18 CAF          6.1710     1.4850     0.0800 ca         1 W7H      -0.125000
     19 CAE          6.6000     0.1630     0.3190 ca         1 W7H      -0.126000
     20 CAH          5.6970    -0.8670     0.3070 ca         1 W7H      -0.097000
     21 CAV          4.3270    -0.6220     0.0560 ca         1 W7H      -0.042000
     22 CAJ          3.3660    -1.6610     0.0350 ca         1 W7H      -0.120000
     23 CAG          2.0500    -1.3900    -0.2120 ca         1 W7H      -0.084000
     24 H2          -4.3300     2.7340     0.2100 hn         1 W7H       0.319500
     25 H4          -0.3260     0.7960     1.3180 hc         1 W7H       0.058200
     26 H5          -0.4890    -0.9270     1.0360 hc         1 W7H       0.058200
     27 H6          -0.2400    -0.5240    -1.4230 hc         1 W7H       0.054700
     28 H7           0.0040     1.1880    -1.1090 hc         1 W7H       0.054700
     29 H8           2.2040     1.9710    -0.6260 ha         1 W7H       0.112000
     30 H9           4.5230     2.7670    -0.3510 ha         1 W7H       0.107000
     31 H10          6.8940     2.2910     0.0920 ha         1 W7H       0.099000
     32 H11          7.6460    -0.0350     0.5110 ha         1 W7H       0.099000
     33 H12          6.0240    -1.8830     0.4920 ha         1 W7H       0.104000
     34 H13          3.6880    -2.6800     0.2160 ha         1 W7H       0.107000
     35 H14          1.3230    -2.1940    -0.2260 ha         1 W7H       0.149000
     36 H15         -4.9430    -1.2300    -0.3540 hn         1 W7H       0.489000
@<TRIPOS>BOND
     1     1     2 1   
     2     2     3 1   
     3     2     4 1   
     4     4     5 1   
     5     4    11 2   
     6     5     6 1   
     7     5    36 1   
     8     6     7 2   
     9     6     8 1   
    10     8     9 1   
    11     8    24 1   
    12     9    10 2   
    13     9    11 1   
    14    11    12 1   
    15    12    13 1   
    16    12    25 1   
    17    12    26 1   
    18    13    14 1   
    19    13    27 1   
    20    13    28 1   
    21    14    15 ar  
    22    14    23 ar  
    23    15    16 ar  
    24    15    29 1   
    25    16    17 ar  
    26    16    21 ar  
    27    17    18 ar  
    28    17    30 1   
    29    18    19 ar  
    30    18    31 1   
    31    19    20 ar  
    32    19    32 1   
    33    20    21 ar  
    34    20    33 1   
    35    21    22 ar  
    36    22    23 ar  
    37    22    34 1   
    38    23    35 1   
@<TRIPOS>SUBSTRUCTURE
     1 W7H         1 TEMP              0 ****  ****    0 ROOT
