@<TRIPOS>MOLECULE
W7H
   36    38     1     0     0
SMALL
No Charge or Current Charge


@<TRIPOS>ATOM
      1 OAA         -3.7990    -2.9680    -0.2750 o          1 W7H      -0.688500
      2 CAP         -2.8340    -2.2450    -0.0500 c          1 W7H       0.718200
      3 OAD         -1.7060    -2.7020     0.0650 o          1 W7H      -0.688500
      4 CAS         -3.0930    -0.7490     0.0660 cc         1 W7H       0.026400
      5 NAN         -4.4190    -0.3600    -0.1220 ns         1 W7H      -0.494600
      6 CAT         -4.9000     0.9050    -0.0920 c          1 W7H       0.606000
      7 OAB         -6.0740     1.1660    -0.2670 o          1 W7H      -0.609000
      8 NAO         -3.9620     1.8490     0.1470 ns         1 W7H      -0.471500
      9 CAU         -2.6280     1.6790     0.3600 c          1 W7H       0.578200
     10 OAC         -1.9100     2.6460     0.5570 o          1 W7H      -0.588000
     11 CAR         -2.1610     0.2590     0.3250 cd         1 W7H      -0.294400
     12 CAM         -0.6710     0.0660     0.5780 c3         1 W7H       0.018800
     13 CAL          0.1500     0.0400    -0.7290 c3         1 W7H      -0.035100
     14 CAQ          1.6330    -0.1910    -0.4720 ca         1 W7H      -0.045300
     15 CAK          2.5200     0.8990    -0.3930 ca         1 W7H      -0.117000
     16 CAW          3.8900     0.6860    -0.1500 ca         1 W7H      -0.034000
     17 CAI          4.7770     1.7770    -0.0720 ca         1 W7H      -0.096000
     18 CAF          6.1440     1.5590     0.1710 ca         1 W7H      -0.125000
     19 CAE          6.6300     0.2500     0.3360 ca         1 W7H      -0.126000
     20 CAH          5.7490    -0.8430     0.2590 ca         1 W7H      -0.097000
     21 CAV          4.3790    -0.6290     0.0160 ca         1 W7H      -0.042000
     22 CAJ          3.4920    -1.7190    -0.0610 ca         1 W7H      -0.120000
     23 CAG          2.1250    -1.5000    -0.3030 ca         1 W7H      -0.084000
     24 H2          -4.2920     2.7990     0.1700 hn         1 W7H       0.319500
     25 H4          -0.2730     0.8620     1.2190 hc         1 W7H       0.058200
     26 H5          -0.4840    -0.8500     1.1490 hc         1 W7H       0.058200
     27 H6          -0.2420    -0.7460    -1.3850 hc         1 W7H       0.054700
     28 H7          -0.0010     0.9850    -1.2640 hc         1 W7H       0.054700
     29 H8           2.1440     1.9120    -0.5180 ha         1 W7H       0.112000
     30 H9           4.4080     2.7930    -0.1980 ha         1 W7H       0.107000
     31 H10          6.8260     2.4040     0.2310 ha         1 W7H       0.099000
     32 H11          7.6880     0.0830     0.5230 ha         1 W7H       0.099000
     33 H12          6.1320    -1.8520     0.3880 ha         1 W7H       0.104000
     34 H13          3.8590    -2.7350     0.0670 ha         1 W7H       0.107000
     35 H14          1.4450    -2.3480    -0.3580 ha         1 W7H       0.149000
     36 H15         -5.1140    -1.0770    -0.3070 hn         1 W7H       0.489000
@<TRIPOS>BOND
     1     1     2 1   
     2     2     3 1   
     3     2     4 1   
     4     4     5 1   
     5     4    11 2   
     6     5     6 1   
     7     5    36 1   
     8     6     7 2   
     9     6     8 1   
    10     8     9 1   
    11     8    24 1   
    12     9    10 2   
    13     9    11 1   
    14    11    12 1   
    15    12    13 1   
    16    12    25 1   
    17    12    26 1   
    18    13    14 1   
    19    13    27 1   
    20    13    28 1   
    21    14    15 ar  
    22    14    23 ar  
    23    15    16 ar  
    24    15    29 1   
    25    16    17 ar  
    26    16    21 ar  
    27    17    18 ar  
    28    17    30 1   
    29    18    19 ar  
    30    18    31 1   
    31    19    20 ar  
    32    19    32 1   
    33    20    21 ar  
    34    20    33 1   
    35    21    22 ar  
    36    22    23 ar  
    37    22    34 1   
    38    23    35 1   
@<TRIPOS>SUBSTRUCTURE
     1 W7H         1 TEMP              0 ****  ****    0 ROOT
