@<TRIPOS>MOLECULE
W7I
   40    42     1     0     0
SMALL
No Charge or Current Charge


@<TRIPOS>ATOM
      1 OAB         -4.2600    -2.6170     0.0320 o          1 W7I      -0.685500
      2 CAQ         -3.2260    -1.9750     0.1840 c          1 W7I       0.716200
      3 OAE         -2.1480    -2.5280     0.3410 o          1 W7I      -0.685500
      4 CAT         -3.3350    -0.4570     0.1580 cc         1 W7I       0.027400
      5 NAN         -4.6210     0.0370    -0.0560 ns         1 W7I      -0.495600
      6 CAV         -4.9820     1.3390    -0.1410 c          1 W7I       0.605000
      7 OAC         -6.1300     1.6920    -0.3320 o          1 W7I      -0.612000
      8 NAO         -3.9570     2.2070     0.0020 ns         1 W7I      -0.471500
      9 CAW         -2.6410     1.9320     0.2200 c          1 W7I       0.576200
     10 OAD         -1.8330     2.8420     0.3210 o          1 W7I      -0.590000
     11 CAU         -2.3080     0.4770     0.3130 cd         1 W7I      -0.292400
     12 CAM         -0.8340     0.1800     0.5690 c3         1 W7I       0.017800
     13 CAL         -0.0190     0.0570    -0.7370 c3         1 W7I      -0.026100
     14 CAR          1.4850    -0.0370    -0.4760 ca         1 W7I      -0.065300
     15 CAJ          2.2380     1.1520    -0.4050 ca         1 W7I      -0.086000
     16 CAX          3.6210     1.1100    -0.1610 ca         1 W7I      -0.066000
     17 CAH          4.3670     2.3020    -0.0920 ca         1 W7I      -0.081000
     18 CAF          5.7510     2.2540     0.1520 ca         1 W7I      -0.139000
     19 CAG          6.3920     1.0160     0.3290 ca         1 W7I      -0.114000
     20 CAI          5.6500    -0.1760     0.2620 ca         1 W7I      -0.113000
     21 CAY          4.2640    -0.1330     0.0170 ca         1 W7I       0.002000
     22 CAK          3.5200    -1.3240    -0.0480 ca         1 W7I      -0.234000
     23 CAS          2.1290    -1.2830    -0.2940 ca         1 W7I       0.163100
     24 OAP          1.3700    -2.4380    -0.3600 os         1 W7I      -0.296100
     25 CAA          1.9320    -3.7460    -0.1660 c3         1 W7I       0.148900
     26 H2          -5.3840    -0.6260    -0.1680 hn         1 W7I       0.490000
     27 H3          -4.1960     3.1830    -0.0610 hn         1 W7I       0.318500
     28 H4          -0.3850     0.9710     1.1830 hc         1 W7I       0.061700
     29 H5          -0.7000    -0.7250     1.1710 hc         1 W7I       0.061700
     30 H6          -0.3760    -0.8100    -1.3060 hc         1 W7I       0.055700
     31 H7          -0.2290     0.9300    -1.3670 hc         1 W7I       0.055700
     32 H8           1.7430     2.1120    -0.5390 ha         1 W7I       0.121000
     33 H9           3.8790     3.2640    -0.2290 ha         1 W7I       0.108000
     34 H10          6.3250     3.1760     0.2040 ha         1 W7I       0.100000
     35 H11          7.4620     0.9800     0.5190 ha         1 W7I       0.098000
     36 H12          6.1530    -1.1300     0.4010 ha         1 W7I       0.102000
     37 H13          4.0360    -2.2680     0.0930 ha         1 W7I       0.110000
     38 H14          2.7020    -3.9550    -0.9210 h1         1 W7I       0.037700
     39 H15          2.3810    -3.8340     0.8310 h1         1 W7I       0.037700
     40 H16          1.1510    -4.5110    -0.2570 h1         1 W7I       0.037700
@<TRIPOS>BOND
     1     1     2 1   
     2     2     3 1   
     3     2     4 1   
     4     4     5 1   
     5     4    11 2   
     6     5     6 1   
     7     5    26 1   
     8     6     7 2   
     9     6     8 1   
    10     8     9 1   
    11     8    27 1   
    12     9    10 2   
    13     9    11 1   
    14    11    12 1   
    15    12    13 1   
    16    12    28 1   
    17    12    29 1   
    18    13    14 1   
    19    13    30 1   
    20    13    31 1   
    21    14    15 ar  
    22    14    23 ar  
    23    15    16 ar  
    24    15    32 1   
    25    16    17 ar  
    26    16    21 ar  
    27    17    18 ar  
    28    17    33 1   
    29    18    19 ar  
    30    18    34 1   
    31    19    20 ar  
    32    19    35 1   
    33    20    21 ar  
    34    20    36 1   
    35    21    22 ar  
    36    22    23 ar  
    37    22    37 1   
    38    23    24 1   
    39    24    25 1   
    40    25    38 1   
    41    25    39 1   
    42    25    40 1   
@<TRIPOS>SUBSTRUCTURE
     1 W7I         1 TEMP              0 ****  ****    0 ROOT
