@<TRIPOS>MOLECULE
W7I
   40    42     1     0     0
SMALL
abcg2


@<TRIPOS>ATOM
      1 OAB         -4.3020    -2.5870    -0.1450 o          1 W7I      -0.685500
      2 CAQ         -3.1930    -2.0340    -0.0190 c          1 W7I       0.716200
      3 OAE         -2.0760    -2.5580     0.0170 o          1 W7I      -0.685500
      4 CAT         -3.2700    -0.4960     0.0870 cc         1 W7I       0.027400
      5 NAN         -4.5510    -0.0480    -0.0930 ns         1 W7I      -0.495600
      6 CAV         -4.9440     1.2500    -0.0740 c          1 W7I       0.605000
      7 OAC         -6.0950     1.6140    -0.2400 o          1 W7I      -0.612000
      8 NAO         -3.9110     2.1210     0.1470 ns         1 W7I      -0.471500
      9 CAW         -2.5820     1.7970     0.3510 c          1 W7I       0.576200
     10 OAD         -1.7690     2.6890     0.5320 o          1 W7I      -0.590000
     11 CAU         -2.2590     0.3750     0.3270 cd         1 W7I      -0.292400
     12 CAM         -0.8130     0.0340     0.5380 c3         1 W7I       0.017800
     13 CAL          0.0000     0.1640    -0.7610 c3         1 W7I      -0.026100
     14 CAR          1.4800     0.0640    -0.5210 ca         1 W7I      -0.065300
     15 CAJ          2.2640     1.1830    -0.5070 ca         1 W7I      -0.086000
     16 CAX          3.6530     1.1370    -0.2360 ca         1 W7I      -0.066000
     17 CAH          4.4580     2.2980    -0.2250 ca         1 W7I      -0.081000
     18 CAF          5.7990     2.2170     0.0450 ca         1 W7I      -0.139000
     19 CAG          6.3890     0.9660     0.3160 ca         1 W7I      -0.114000
     20 CAI          5.6310    -0.1760     0.3110 ca         1 W7I      -0.113000
     21 CAY          4.2450    -0.1200     0.0340 ca         1 W7I       0.002000
     22 CAK          3.4380    -1.2830     0.0180 ca         1 W7I      -0.234000
     23 CAS          2.0960    -1.1980    -0.2550 ca         1 W7I       0.163100
     24 OAP          1.2630    -2.2500    -0.2980 os         1 W7I      -0.296100
     25 CAA          1.7680    -3.5340    -0.0040 c3         1 W7I       0.148900
     26 H2          -5.2410    -0.7760    -0.2420 hn         1 W7I       0.490000
     27 H3          -4.1470     3.1050     0.1640 hn         1 W7I       0.318500
     28 H4          -0.4000     0.7220     1.2780 hc         1 W7I       0.061700
     29 H5          -0.7120    -0.9730     0.9250 hc         1 W7I       0.061700
     30 H6          -0.3380    -0.6010    -1.4620 hc         1 W7I       0.055700
     31 H7          -0.2080     1.1330    -1.2180 hc         1 W7I       0.055700
     32 H8           1.8100     2.1470    -0.7100 ha         1 W7I       0.121000
     33 H9           3.9990     3.2570    -0.4360 ha         1 W7I       0.108000
     34 H10          6.4090     3.1110     0.0540 ha         1 W7I       0.100000
     35 H11          7.4490     0.9090     0.5270 ha         1 W7I       0.098000
     36 H12          6.0880    -1.1350     0.5200 ha         1 W7I       0.102000
     37 H13          3.9110    -2.2350     0.2270 ha         1 W7I       0.110000
     38 H14          2.5450    -3.8400    -0.7090 h1         1 W7I       0.037700
     39 H15          2.1750    -3.5880     1.0100 h1         1 W7I       0.037700
     40 H16          0.9280    -4.2190    -0.0840 h1         1 W7I       0.037700
@<TRIPOS>BOND
     1     1     2 1   
     2     2     3 1   
     3     2     4 1   
     4     4     5 1   
     5     4    11 2   
     6     5     6 1   
     7     5    26 1   
     8     6     7 2   
     9     6     8 1   
    10     8     9 1   
    11     8    27 1   
    12     9    10 2   
    13     9    11 1   
    14    11    12 1   
    15    12    13 1   
    16    12    28 1   
    17    12    29 1   
    18    13    14 1   
    19    13    30 1   
    20    13    31 1   
    21    14    15 ar  
    22    14    23 ar  
    23    15    16 ar  
    24    15    32 1   
    25    16    17 ar  
    26    16    21 ar  
    27    17    18 ar  
    28    17    33 1   
    29    18    19 ar  
    30    18    34 1   
    31    19    20 ar  
    32    19    35 1   
    33    20    21 ar  
    34    20    36 1   
    35    21    22 ar  
    36    22    23 ar  
    37    22    37 1   
    38    23    24 1   
    39    24    25 1   
    40    25    38 1   
    41    25    39 1   
    42    25    40 1   
@<TRIPOS>SUBSTRUCTURE
     1 W7I         1 TEMP              0 ****  ****    0 ROOT
