@<TRIPOS>MOLECULE
W7J
   38    40     1     0     0
SMALL
No Charge or Current Charge


@<TRIPOS>ATOM
      1 OAJ          2.1630    -2.5110     0.0070 o          1 W7J      -0.686500
      2 CAI          3.3660    -2.3050     0.0720 c          1 W7J       0.716200
      3 OAK          4.1630    -3.2140     0.2810 o          1 W7J      -0.686500
      4 C4           3.9340    -0.9020    -0.0910 cc         1 W7J       0.015400
      5 N3           5.3190    -0.8040     0.0380 ns         1 W7J      -0.494600
      6 C2           6.0590     0.3270    -0.0420 c          1 W7J       0.604000
      7 O2           7.2680     0.3310     0.0830 o          1 W7J      -0.627000
      8 N1           5.3360     1.4460    -0.2720 ns         1 W7J      -0.472500
      9 C6           3.9890     1.5640    -0.4310 c          1 W7J       0.574200
     10 O6           3.4880     2.6600    -0.6280 o          1 W7J      -0.585000
     11 C5           3.2290     0.2780    -0.3420 cd         1 W7J      -0.278400
     12 CAL          1.7230     0.4090    -0.5330 c3         1 W7J       0.011800
     13 CAM          0.9710     0.5980     0.8020 c3         1 W7J      -0.021100
     14 CAN         -0.5340     0.7250     0.6040 ca         1 W7J      -0.090300
     15 CAO         -1.3300    -0.4290     0.4730 ca         1 W7J      -0.091000
     16 CAP         -2.7210    -0.3170     0.2860 ca         1 W7J      -0.043000
     17 CAT         -3.5150    -1.4680     0.1560 ca         1 W7J      -0.146000
     18 CAU         -4.9040    -1.3540    -0.0320 ca         1 W7J      -0.074000
     19 CAV         -5.5240    -0.0830    -0.0930 ca         1 W7J      -0.142600
     20 CAX         -7.0270     0.0380    -0.2950 c          1 W7J       0.714600
     21 OAZ         -7.6900    -0.9840    -0.4040 o          1 W7J      -0.732000
     22 OAY         -7.5250     1.1550    -0.3420 o          1 W7J      -0.732000
     23 CAW         -4.7140     1.0700     0.0390 ca         1 W7J      -0.096000
     24 CAQ         -3.3230     0.9570     0.2270 ca         1 W7J      -0.052000
     25 CAR         -2.5280     2.1110     0.3550 ca         1 W7J      -0.113000
     26 CAS         -1.1390     1.9950     0.5420 ca         1 W7J      -0.124000
     27 H2           5.8620     2.3030    -0.3320 hn         1 W7J       0.313500
     28 H4           1.4820     1.2570    -1.1860 hc         1 W7J       0.059700
     29 H5           1.3150    -0.4570    -1.0650 hc         1 W7J       0.059700
     30 H6           1.1910    -0.2490     1.4630 hc         1 W7J       0.042700
     31 H7           1.3640     1.4880     1.3090 hc         1 W7J       0.042700
     32 H8          -0.8660    -1.4120     0.5160 ha         1 W7J       0.121000
     33 H9          -3.0600    -2.4550     0.1990 ha         1 W7J       0.094000
     34 H10         -5.4970    -2.2600    -0.1290 ha         1 W7J       0.120000
     35 H12         -5.1640     2.0590    -0.0040 ha         1 W7J       0.121000
     36 H13         -2.9820     3.0980     0.3100 ha         1 W7J       0.094000
     37 H14         -0.5350     2.8940     0.6380 ha         1 W7J       0.096000
     38 H15          5.8520    -1.6510     0.2170 hn         1 W7J       0.486000
@<TRIPOS>BOND
     1     1     2 1   
     2     2     3 1   
     3     2     4 1   
     4     4     5 1   
     5     4    11 2   
     6     5     6 1   
     7     5    38 1   
     8     6     7 2   
     9     6     8 1   
    10     8     9 1   
    11     8    27 1   
    12     9    10 2   
    13     9    11 1   
    14    11    12 1   
    15    12    13 1   
    16    12    28 1   
    17    12    29 1   
    18    13    14 1   
    19    13    30 1   
    20    13    31 1   
    21    14    15 ar  
    22    14    26 ar  
    23    15    16 ar  
    24    15    32 1   
    25    16    17 ar  
    26    16    24 ar  
    27    17    18 ar  
    28    17    33 1   
    29    18    19 ar  
    30    18    34 1   
    31    19    20 1   
    32    19    23 ar  
    33    20    21 1   
    34    20    22 1   
    35    23    24 ar  
    36    23    35 1   
    37    24    25 ar  
    38    25    26 ar  
    39    25    36 1   
    40    26    37 1   
@<TRIPOS>SUBSTRUCTURE
     1 W7J         1 TEMP              0 ****  ****    0 ROOT
