@<TRIPOS>MOLECULE
W7J
   38    40     1     0     0
SMALL
bcc


@<TRIPOS>ATOM
      1 OAJ          2.0920    -2.3980    -0.1910 o          1 W7J      -0.791800
      2 CAI          3.3190    -2.2610    -0.2380 c          1 W7J       0.926800
      3 OAK          4.1940    -3.1460    -0.2820 o          1 W7J      -0.791800
      4 C4           3.8820    -0.8250    -0.2200 cc         1 W7J       0.015400
      5 N3           5.2420    -0.8160    -0.0660 ns         1 W7J      -0.448100
      6 C2           6.0190     0.2930     0.0140 c          1 W7J       0.813500
      7 O2           7.2290     0.2670     0.1510 o          1 W7J      -0.702500
      8 N1           5.3040     1.4580    -0.0720 ns         1 W7J      -0.606500
      9 C6           3.9370     1.5840    -0.2360 c          1 W7J       0.716700
     10 O6           3.4380     2.6970    -0.2860 o          1 W7J      -0.660500
     11 C5           3.1900     0.3360    -0.3320 cd         1 W7J      -0.278400
     12 CAL          1.7060     0.4620    -0.5060 c3         1 W7J       0.011800
     13 CAM          0.9730     0.5780     0.8370 c3         1 W7J      -0.021100
     14 CAN         -0.5110     0.6890     0.6410 ca         1 W7J      -0.090300
     15 CAO         -1.3140    -0.4230     0.6520 ca         1 W7J      -0.109000
     16 CAP         -2.7050    -0.3330     0.4130 ca         1 W7J      -0.043000
     17 CAT         -3.5500    -1.4690     0.4200 ca         1 W7J      -0.164000
     18 CAU         -4.8890    -1.3460     0.1760 ca         1 W7J      -0.092000
     19 CAV         -5.4750    -0.0850    -0.0900 ca         1 W7J      -0.142600
     20 CAX         -6.9690     0.0280    -0.3670 c          1 W7J       0.925200
     21 OAZ         -7.6200    -1.0340    -0.3380 o          1 W7J      -0.837300
     22 OAY         -7.4120     1.1690    -0.6000 o          1 W7J      -0.837300
     23 CAW         -4.6700     1.0260    -0.0950 ca         1 W7J      -0.114000
     24 CAQ         -3.2820     0.9360     0.1520 ca         1 W7J      -0.052000
     25 CAR         -2.4400     2.0730     0.1460 ca         1 W7J      -0.131000
     26 CAS         -1.0990     1.9510     0.3820 ca         1 W7J      -0.142000
     27 H2           5.8360     2.3160     0.0000 hn         1 W7J       0.313500
     28 H4           1.4970     1.3500    -1.1050 hc         1 W7J       0.059700
     29 H5           1.3130    -0.3940    -1.0460 hc         1 W7J       0.059700
     30 H6           1.2030    -0.3040     1.4370 hc         1 W7J       0.042700
     31 H7           1.3460     1.4480     1.3830 hc         1 W7J       0.042700
     32 H8          -0.8790    -1.3980     0.8460 ha         1 W7J       0.139000
     33 H9          -3.1190    -2.4420     0.6230 ha         1 W7J       0.112000
     34 H10         -5.5230    -2.2230     0.1840 ha         1 W7J       0.138000
     35 H12         -5.1020     1.9990    -0.2970 ha         1 W7J       0.139000
     36 H13         -2.8730     3.0470    -0.0500 ha         1 W7J       0.112000
     37 H14         -0.4680     2.8330     0.3770 ha         1 W7J       0.114000
     38 H15          5.6770    -1.7310    -0.0220 hn         1 W7J       0.372500
@<TRIPOS>BOND
     1     1     2 1   
     2     2     3 1   
     3     2     4 1   
     4     4     5 1   
     5     4    11 2   
     6     5     6 1   
     7     5    38 1   
     8     6     7 2   
     9     6     8 1   
    10     8     9 1   
    11     8    27 1   
    12     9    10 2   
    13     9    11 1   
    14    11    12 1   
    15    12    13 1   
    16    12    28 1   
    17    12    29 1   
    18    13    14 1   
    19    13    30 1   
    20    13    31 1   
    21    14    15 ar  
    22    14    26 ar  
    23    15    16 ar  
    24    15    32 1   
    25    16    17 ar  
    26    16    24 ar  
    27    17    18 ar  
    28    17    33 1   
    29    18    19 ar  
    30    18    34 1   
    31    19    20 1   
    32    19    23 ar  
    33    20    21 1   
    34    20    22 1   
    35    23    24 ar  
    36    23    35 1   
    37    24    25 ar  
    38    25    26 ar  
    39    25    36 1   
    40    26    37 1   
@<TRIPOS>SUBSTRUCTURE
     1 W7J         1 TEMP              0 ****  ****    0 ROOT
