@<TRIPOS>MOLECULE
W7K
   44    46     1     0     0
SMALL
abcg2


@<TRIPOS>ATOM
      1 OAC          2.8410     2.5000     0.0140 o          1 W7K      -0.685500
      2 CAR          3.9320     1.9250    -0.0290 c          1 W7K       0.716200
      3 OAF          5.0640     2.4250    -0.1750 o          1 W7K      -0.685500
      4 CAV          3.9410     0.3870     0.1020 cc         1 W7K       0.027400
      5 NAN          5.2010    -0.1200    -0.0630 ns         1 W7K      -0.495600
      6 CAX          5.5380    -1.4330    -0.0210 c          1 W7K       0.605000
      7 OAD          6.6720    -1.8500    -0.1750 o          1 W7K      -0.612000
      8 NAO          4.4670    -2.2550     0.2110 ns         1 W7K      -0.471500
      9 CAY          3.1520    -1.8710     0.3980 c          1 W7K       0.575200
     10 OAE          2.3000    -2.7240     0.5870 o          1 W7K      -0.591000
     11 CAW          2.8900    -0.4350     0.3490 cd         1 W7K      -0.292400
     12 CAM          1.4590    -0.0290     0.5380 c3         1 W7K       0.017800
     13 CAL          0.6610    -0.1280    -0.7730 c3         1 W7K      -0.024100
     14 CAT         -0.8160     0.0570    -0.5670 ca         1 W7K      -0.074300
     15 CAJ         -1.6660    -1.0120    -0.5720 ca         1 W7K      -0.075000
     16 CAZ         -3.0560    -0.8800    -0.3350 ca         1 W7K      -0.096000
     17 CAH         -3.9340    -1.9800    -0.3420 ca         1 W7K      -0.047000
     18 CAG         -5.2770    -1.8280    -0.1080 ca         1 W7K      -0.208000
     19 CAS         -5.8020    -0.5410     0.1470 ca         1 W7K       0.131100
     20 OAP         -7.1080    -0.3080     0.3840 os         1 W7K      -0.352100
     21 CAA         -8.0170    -1.3900     0.3470 c3         1 W7K       0.155900
     22 CAI         -4.9640     0.5530     0.1630 ca         1 W7K      -0.160000
     23 CBA         -3.5840     0.4090    -0.0770 ca         1 W7K       0.038000
     24 CAK         -2.7060     1.5210    -0.0730 ca         1 W7K      -0.244000
     25 CAU         -1.3660     1.3530    -0.3150 ca         1 W7K       0.173100
     26 OAQ         -0.4720     2.3540    -0.3380 os         1 W7K      -0.295100
     27 CAB         -0.8990     3.6630    -0.0340 c3         1 W7K       0.148900
     28 H2           4.6610    -3.2470     0.2450 hn         1 W7K       0.318500
     29 H4           1.0040    -0.6970     1.2720 hc         1 W7K       0.061700
     30 H5           1.3980     0.9820     0.9220 hc         1 W7K       0.061700
     31 H6           1.0570     0.6060    -1.4770 hc         1 W7K       0.054700
     32 H7           0.8230    -1.1130    -1.2150 hc         1 W7K       0.054700
     33 H8          -1.2670    -2.0020    -0.7650 ha         1 W7K       0.119000
     34 H9          -3.5390    -2.9690    -0.5390 ha         1 W7K       0.108000
     35 H10         -5.9160    -2.7000    -0.1210 ha         1 W7K       0.105000
     36 H11         -9.0020    -0.9710     0.5410 h1         1 W7K       0.033033
     37 H12         -8.0320    -1.8810    -0.6290 h1         1 W7K       0.033033
     38 H13         -7.7990    -2.1380     1.1140 h1         1 W7K       0.033033
     39 H14         -5.3730     1.5370     0.3610 ha         1 W7K       0.118000
     40 H15         -3.1230     2.5010     0.1230 ha         1 W7K       0.113000
     41 H16         -0.0150     4.2920    -0.0810 h1         1 W7K       0.038367
     42 H17         -1.6370     4.0320    -0.7520 h1         1 W7K       0.038367
     43 H18         -1.3280     3.7280     0.9710 h1         1 W7K       0.038367
     44 H19          5.9230     0.5750    -0.2240 hn         1 W7K       0.490000
@<TRIPOS>BOND
     1     1     2 1   
     2     2     3 1   
     3     2     4 1   
     4     4     5 1   
     5     4    11 2   
     6     5     6 1   
     7     5    44 1   
     8     6     7 2   
     9     6     8 1   
    10     8     9 1   
    11     8    28 1   
    12     9    10 2   
    13     9    11 1   
    14    11    12 1   
    15    12    13 1   
    16    12    29 1   
    17    12    30 1   
    18    13    14 1   
    19    13    31 1   
    20    13    32 1   
    21    14    15 ar  
    22    14    25 ar  
    23    15    16 ar  
    24    15    33 1   
    25    16    17 ar  
    26    16    23 ar  
    27    17    18 ar  
    28    17    34 1   
    29    18    19 ar  
    30    18    35 1   
    31    19    20 1   
    32    19    22 ar  
    33    20    21 1   
    34    21    36 1   
    35    21    37 1   
    36    21    38 1   
    37    22    23 ar  
    38    22    39 1   
    39    23    24 ar  
    40    24    25 ar  
    41    24    40 1   
    42    25    26 1   
    43    26    27 1   
    44    27    41 1   
    45    27    42 1   
    46    27    43 1   
@<TRIPOS>SUBSTRUCTURE
     1 W7K         1 TEMP              0 ****  ****    0 ROOT
