@<TRIPOS>MOLECULE
W7K
   44    46     1     0     0
SMALL
No Charge or Current Charge


@<TRIPOS>ATOM
      1 OAC          2.9430     2.4640     0.3600 o          1 W7K      -0.685500
      2 CAR          3.9900     1.8500     0.2270 c          1 W7K       0.716200
      3 OAF          5.0630     2.4310     0.1010 o          1 W7K      -0.685500
      4 CAV          4.0120     0.3280     0.2010 cc         1 W7K       0.027400
      5 NAN          5.2710    -0.2400     0.0150 ns         1 W7K      -0.495600
      6 CAX          5.5580    -1.5610    -0.0640 c          1 W7K       0.605000
      7 OAD          6.6860    -1.9800    -0.2290 o          1 W7K      -0.612000
      8 NAO          4.4800    -2.3680     0.0540 ns         1 W7K      -0.471500
      9 CAY          3.1780    -2.0170     0.2420 c          1 W7K       0.575200
     10 OAE          2.3170    -2.8780     0.3230 o          1 W7K      -0.591000
     11 CAW          2.9280    -0.5450     0.3310 cd         1 W7K      -0.292400
     12 CAM          1.4690    -0.1620     0.5530 c3         1 W7K       0.017800
     13 CAL          0.6930     0.0090    -0.7700 c3         1 W7K      -0.024100
     14 CAT         -0.8090     0.1900    -0.5440 ca         1 W7K      -0.074300
     15 CAJ         -1.6320    -0.9520    -0.4970 ca         1 W7K      -0.075000
     16 CAZ         -3.0160    -0.8270    -0.2840 ca         1 W7K      -0.096000
     17 CAH         -3.8330    -1.9720    -0.2390 ca         1 W7K      -0.047000
     18 CAG         -5.2170    -1.8450    -0.0260 ca         1 W7K      -0.208000
     19 CAS         -5.7910    -0.5660     0.1440 ca         1 W7K       0.131100
     20 OAP         -7.1420    -0.3810     0.3560 os         1 W7K      -0.352100
     21 CAA         -8.0660    -1.4820     0.4190 c3         1 W7K       0.155900
     22 CAI         -4.9720     0.5730     0.0980 ca         1 W7K      -0.160000
     23 CBA         -3.5880     0.4490    -0.1150 ca         1 W7K       0.038000
     24 CAK         -2.7740     1.5940    -0.1570 ca         1 W7K      -0.244000
     25 CAU         -1.3820     1.4720    -0.3710 ca         1 W7K       0.173100
     26 OAQ         -0.5560     2.5800    -0.4130 os         1 W7K      -0.295100
     27 CAB         -1.0430     3.9180    -0.2260 c3         1 W7K       0.148900
     28 H2           4.6640    -3.3560    -0.0050 hn         1 W7K       0.318500
     29 H4           0.9600    -0.9260     1.1550 hc         1 W7K       0.061700
     30 H5           1.3740     0.7480     1.1540 hc         1 W7K       0.061700
     31 H6           1.1120     0.8540    -1.3300 hc         1 W7K       0.054700
     32 H7           0.8650    -0.8740    -1.3980 hc         1 W7K       0.054700
     33 H8          -1.1920    -1.9390    -0.6240 ha         1 W7K       0.119000
     34 H9          -3.3980    -2.9610    -0.3680 ha         1 W7K       0.108000
     35 H10         -5.8230    -2.7450     0.0040 ha         1 W7K       0.105000
     36 H11         -9.0840    -1.1140     0.5940 h1         1 W7K       0.033033
     37 H12         -8.0650    -2.0470    -0.5220 h1         1 W7K       0.033033
     38 H13         -7.8050    -2.1630     1.2390 h1         1 W7K       0.033033
     39 H14         -5.4180     1.5550     0.2300 ha         1 W7K       0.118000
     40 H15         -3.2360     2.5670    -0.0230 ha         1 W7K       0.113000
     41 H16         -0.2160     4.6360    -0.2950 h1         1 W7K       0.038367
     42 H17         -1.7810     4.1750    -0.9970 h1         1 W7K       0.038367
     43 H18         -1.5090     4.0290     0.7610 h1         1 W7K       0.038367
     44 H19          6.0740     0.3770    -0.0780 hn         1 W7K       0.490000
@<TRIPOS>BOND
     1     1     2 1   
     2     2     3 1   
     3     2     4 1   
     4     4     5 1   
     5     4    11 2   
     6     5     6 1   
     7     5    44 1   
     8     6     7 2   
     9     6     8 1   
    10     8     9 1   
    11     8    28 1   
    12     9    10 2   
    13     9    11 1   
    14    11    12 1   
    15    12    13 1   
    16    12    29 1   
    17    12    30 1   
    18    13    14 1   
    19    13    31 1   
    20    13    32 1   
    21    14    15 ar  
    22    14    25 ar  
    23    15    16 ar  
    24    15    33 1   
    25    16    17 ar  
    26    16    23 ar  
    27    17    18 ar  
    28    17    34 1   
    29    18    19 ar  
    30    18    35 1   
    31    19    20 1   
    32    19    22 ar  
    33    20    21 1   
    34    21    36 1   
    35    21    37 1   
    36    21    38 1   
    37    22    23 ar  
    38    22    39 1   
    39    23    24 ar  
    40    24    25 ar  
    41    24    40 1   
    42    25    26 1   
    43    26    27 1   
    44    27    41 1   
    45    27    42 1   
    46    27    43 1   
@<TRIPOS>SUBSTRUCTURE
     1 W7K         1 TEMP              0 ****  ****    0 ROOT
