@<TRIPOS>MOLECULE
W7L
   40    42     1     0     0
SMALL
abcg2


@<TRIPOS>ATOM
      1 OAB          2.6470    -2.6240     0.4420 o          1 W7L      -0.686500
      2 CAQ          3.6330    -1.8800     0.4000 c          1 W7L       0.717200
      3 OAE          4.8370    -2.1900     0.4570 o          1 W7L      -0.686500
      4 CAT          3.3830    -0.3670     0.2350 cc         1 W7L       0.029400
      5 NAN          4.5470     0.3180     0.0160 ns         1 W7L      -0.494600
      6 CAV          4.6490     1.6550    -0.1900 c          1 W7L       0.606000
      7 OAC          5.7020     2.2370    -0.3710 o          1 W7L      -0.608000
      8 NAO          3.4360     2.2930    -0.1800 ns         1 W7L      -0.470500
      9 CAW          2.1960     1.7180     0.0230 c          1 W7L       0.579200
     10 OAD          1.1960     2.4180    -0.0220 o          1 W7L      -0.597000
     11 CAU          2.1940     0.2830     0.2770 cd         1 W7L      -0.295400
     12 CAM          0.8560    -0.3470     0.5220 c3         1 W7L       0.018800
     13 CAL          0.1840    -0.8040    -0.7810 c3         1 W7L      -0.038100
     14 CAS         -1.1690    -1.4060    -0.5330 ca         1 W7L      -0.028300
     15 CAG         -1.3060    -2.7690    -0.4550 ca         1 W7L      -0.123000
     16 CAF         -2.5510    -3.3700    -0.1780 ca         1 W7L      -0.091000
     17 CAI         -3.6630    -2.6020     0.0220 ca         1 W7L      -0.136000
     18 CAX         -3.5750    -1.1890    -0.0470 ca         1 W7L      -0.002000
     19 CAK         -4.7110    -0.3820     0.1590 ca         1 W7L      -0.162000
     20 CAY         -2.3180    -0.5860    -0.3250 ca         1 W7L      -0.064000
     21 CAJ         -2.2690     0.8250    -0.3780 ca         1 W7L      -0.046000
     22 CAH         -3.3820     1.5970    -0.1740 ca         1 W7L      -0.197000
     23 CAR         -4.6280     0.9900     0.0990 ca         1 W7L       0.128100
     24 OAP         -5.7620     1.6850     0.3120 os         1 W7L      -0.354100
     25 CAA         -5.7230     3.0970     0.2600 c3         1 W7L       0.155900
     26 H2           3.4540     3.2920    -0.3430 hn         1 W7L       0.319500
     27 H4           0.9570    -1.2030     1.1830 hc         1 W7L       0.058200
     28 H5           0.2140     0.3770     1.0280 hc         1 W7L       0.058200
     29 H6           0.1130     0.0360    -1.4760 hc         1 W7L       0.055200
     30 H7           0.8280    -1.5480    -1.2520 hc         1 W7L       0.055200
     31 H8          -0.4340    -3.3960    -0.6030 ha         1 W7L       0.135000
     32 H9          -2.6200    -4.4490    -0.1260 ha         1 W7L       0.103000
     33 H10         -4.6190    -3.0620     0.2380 ha         1 W7L       0.101000
     34 H11         -5.6640    -0.8520     0.3730 ha         1 W7L       0.114000
     35 H12         -1.3300     1.3270    -0.5780 ha         1 W7L       0.142000
     36 H13         -3.2840     2.6730    -0.2250 ha         1 W7L       0.112000
     37 H14         -5.4200     3.4660    -0.7240 h1         1 W7L       0.034033
     38 H15         -6.7350     3.4390     0.4620 h1         1 W7L       0.034033
     39 H16         -5.0560     3.5190     1.0160 h1         1 W7L       0.034033
     40 H17          5.3900    -0.2460     0.0400 hn         1 W7L       0.490000
@<TRIPOS>BOND
     1     1     2 1   
     2     2     3 1   
     3     2     4 1   
     4     4     5 1   
     5     4    11 2   
     6     5     6 1   
     7     5    40 1   
     8     6     7 2   
     9     6     8 1   
    10     8     9 1   
    11     8    26 1   
    12     9    10 2   
    13     9    11 1   
    14    11    12 1   
    15    12    13 1   
    16    12    27 1   
    17    12    28 1   
    18    13    14 1   
    19    13    29 1   
    20    13    30 1   
    21    14    15 ar  
    22    14    20 ar  
    23    15    16 ar  
    24    15    31 1   
    25    16    17 ar  
    26    16    32 1   
    27    17    18 ar  
    28    17    33 1   
    29    18    19 ar  
    30    18    20 ar  
    31    19    23 ar  
    32    19    34 1   
    33    20    21 ar  
    34    21    22 ar  
    35    21    35 1   
    36    22    23 ar  
    37    22    36 1   
    38    23    24 1   
    39    24    25 1   
    40    25    37 1   
    41    25    38 1   
    42    25    39 1   
@<TRIPOS>SUBSTRUCTURE
     1 W7L         1 TEMP              0 ****  ****    0 ROOT
