@<TRIPOS>MOLECULE
W7L
   40    42     1     0     0
SMALL
No Charge or Current Charge


@<TRIPOS>ATOM
      1 OAB          2.7780    -2.6920     0.5270 o          1 W7L      -0.686500
      2 CAQ          3.7130    -1.9260     0.3470 c          1 W7L       0.717200
      3 OAE          4.8670    -2.3320     0.2590 o          1 W7L      -0.686500
      4 CAT          3.4870    -0.4260     0.2080 cc         1 W7L       0.029400
      5 NAN          4.6350     0.3260    -0.0320 ns         1 W7L      -0.494600
      6 CAV          4.6980     1.6670    -0.2160 c          1 W7L       0.606000
      7 OAC          5.7410     2.2530    -0.4240 o          1 W7L      -0.608000
      8 NAO          3.5000     2.2900    -0.1520 ns         1 W7L      -0.470500
      9 CAW          2.2740     1.7430     0.0750 c          1 W7L       0.579200
     10 OAD          1.2800     2.4520     0.0940 o          1 W7L      -0.597000
     11 CAU          2.2740     0.2630     0.2820 cd         1 W7L      -0.295400
     12 CAM          0.9030    -0.3450     0.5530 c3         1 W7L       0.018800
     13 CAL          0.2030    -0.8140    -0.7410 c3         1 W7L      -0.038100
     14 CAS         -1.1900    -1.3920    -0.4770 ca         1 W7L      -0.028300
     15 CAG         -1.3190    -2.7940    -0.4070 ca         1 W7L      -0.123000
     16 CAF         -2.5660    -3.3920    -0.1690 ca         1 W7L      -0.091000
     17 CAI         -3.7030    -2.5920     0.0040 ca         1 W7L      -0.136000
     18 CAX         -3.5970    -1.1910    -0.0570 ca         1 W7L      -0.002000
     19 CAK         -4.7500    -0.4060     0.1240 ca         1 W7L      -0.162000
     20 CAY         -2.3420    -0.5770    -0.2950 ca         1 W7L      -0.064000
     21 CAJ         -2.2790     0.8360    -0.3430 ca         1 W7L      -0.046000
     22 CAH         -3.4360     1.6140    -0.1600 ca         1 W7L      -0.197000
     23 CAR         -4.6790     0.9920     0.0740 ca         1 W7L       0.128100
     24 OAP         -5.8450     1.7060     0.2600 os         1 W7L      -0.354100
     25 CAA         -5.8780     3.1440     0.2270 c3         1 W7L       0.155900
     26 H2           3.5160     3.2870    -0.2910 hn         1 W7L       0.319500
     27 H4           0.9710    -1.1810     1.2560 hc         1 W7L       0.058200
     28 H5           0.2540     0.3740     1.0670 hc         1 W7L       0.058200
     29 H6           0.1520     0.0130    -1.4580 hc         1 W7L       0.055200
     30 H7           0.8360    -1.5670    -1.2250 hc         1 W7L       0.055200
     31 H8          -0.4440    -3.4280    -0.5360 ha         1 W7L       0.135000
     32 H9          -2.6490    -4.4750    -0.1190 ha         1 W7L       0.103000
     33 H10         -4.6660    -3.0620     0.1880 ha         1 W7L       0.101000
     34 H11         -5.7100    -0.8820     0.3070 ha         1 W7L       0.114000
     35 H12         -1.3400     1.3540    -0.5170 ha         1 W7L       0.142000
     36 H13         -3.3460     2.6950    -0.2030 ha         1 W7L       0.112000
     37 H14         -5.5420     3.5200    -0.7480 h1         1 W7L       0.034033
     38 H15         -6.9000     3.5050     0.3970 h1         1 W7L       0.034033
     39 H16         -5.2340     3.5670     1.0090 h1         1 W7L       0.034033
     40 H17          5.5300    -0.1540    -0.0850 hn         1 W7L       0.490000
@<TRIPOS>BOND
     1     1     2 1   
     2     2     3 1   
     3     2     4 1   
     4     4     5 1   
     5     4    11 2   
     6     5     6 1   
     7     5    40 1   
     8     6     7 2   
     9     6     8 1   
    10     8     9 1   
    11     8    26 1   
    12     9    10 2   
    13     9    11 1   
    14    11    12 1   
    15    12    13 1   
    16    12    27 1   
    17    12    28 1   
    18    13    14 1   
    19    13    29 1   
    20    13    30 1   
    21    14    15 ar  
    22    14    20 ar  
    23    15    16 ar  
    24    15    31 1   
    25    16    17 ar  
    26    16    32 1   
    27    17    18 ar  
    28    17    33 1   
    29    18    19 ar  
    30    18    20 ar  
    31    19    23 ar  
    32    19    34 1   
    33    20    21 ar  
    34    21    22 ar  
    35    21    35 1   
    36    22    23 ar  
    37    22    36 1   
    38    23    24 1   
    39    24    25 1   
    40    25    37 1   
    41    25    38 1   
    42    25    39 1   
@<TRIPOS>SUBSTRUCTURE
     1 W7L         1 TEMP              0 ****  ****    0 ROOT
