@<TRIPOS>MOLECULE
W7M
   42    44     1     0     0
SMALL
No Charge or Current Charge


@<TRIPOS>ATOM
      1 OAB         -4.4050     3.2810     0.3500 o          1 W7M      -0.687500
      2 CAR         -3.6430     2.3460     0.1240 c          1 W7M       0.718200
      3 OAF         -2.4310     2.5060     0.0810 o          1 W7M      -0.687500
      4 CAV         -4.2640     0.9720    -0.0860 cc         1 W7M       0.029400
      5 NAO         -5.6530     0.9260     0.0260 ns         1 W7M      -0.493600
      6 CAX         -6.4360    -0.1730    -0.0940 c          1 W7M       0.606000
      7 OAD         -7.6450    -0.1330     0.0180 o          1 W7M      -0.608000
      8 NAP         -5.7540    -1.3130    -0.3470 ns         1 W7M      -0.471500
      9 CAY         -4.4110    -1.4790    -0.4960 c          1 W7M       0.579200
     10 OAE         -3.9510    -2.5880    -0.7180 o          1 W7M      -0.589000
     11 CAW         -3.6040    -0.2280    -0.3630 cd         1 W7M      -0.298400
     12 CAN         -2.1020    -0.4100    -0.5440 c3         1 W7M       0.020800
     13 CAM         -1.3730    -0.6520     0.7940 c3         1 W7M      -0.037100
     14 CAT          0.1320    -0.7990     0.6100 ca         1 W7M      -0.039300
     15 CAK          0.9450     0.3450     0.5010 ca         1 W7M      -0.104000
     16 CAG          0.7200    -2.0760     0.5420 ca         1 W7M      -0.100000
     17 CAI          2.1090    -2.2090     0.3680 ca         1 W7M      -0.108000
     18 CBA          2.9210    -1.0650     0.2600 ca         1 W7M      -0.067000
     19 CAL          4.3120    -1.1940     0.0850 ca         1 W7M      -0.029000
     20 CAZ          2.3350     0.2170     0.3260 ca         1 W7M      -0.010000
     21 CAJ          3.1470     1.3590     0.2170 ca         1 W7M      -0.104000
     22 CAH          4.5350     1.2290     0.0430 ca         1 W7M      -0.082000
     23 CAU          5.1350    -0.0510    -0.0250 ca         1 W7M      -0.159600
     24 CAS          6.6260    -0.2170    -0.2120 c          1 W7M       0.609700
     25 OAC          7.1700    -1.3140    -0.2740 o          1 W7M      -0.508000
     26 OAQ          7.3090     0.9700    -0.3060 os         1 W7M      -0.438100
     27 CAA          8.7360     0.9220    -0.4860 c3         1 W7M       0.154900
     28 H2          -6.3120    -2.1460    -0.4370 hn         1 W7M       0.319500
     29 H4          -1.8850    -1.2510    -1.2130 hc         1 W7M       0.057700
     30 H5          -1.6600     0.4520    -1.0550 hc         1 W7M       0.057700
     31 H6          -1.5860     0.1790     1.4760 hc         1 W7M       0.056200
     32 H7          -1.7880    -1.5490     1.2690 hc         1 W7M       0.056200
     33 H8           0.4920     1.3340     0.5490 ha         1 W7M       0.145000
     34 H9           0.1020    -2.9670     0.6210 ha         1 W7M       0.119000
     35 H10          2.5500    -3.2020     0.3170 ha         1 W7M       0.106000
     36 H11          4.7520    -2.1880     0.0350 ha         1 W7M       0.126000
     37 H12          2.7040     2.3510     0.2670 ha         1 W7M       0.122000
     38 H13          5.1380     2.1310    -0.0390 ha         1 W7M       0.120000
     39 H14          8.9960     0.3960    -1.4130 h1         1 W7M       0.043367
     40 H15          9.1470     1.9370    -0.5440 h1         1 W7M       0.043367
     41 H16          9.2190     0.4070     0.3550 h1         1 W7M       0.043367
     42 H17         -6.1540     1.7880     0.2230 hn         1 W7M       0.489000
@<TRIPOS>BOND
     1     1     2 1   
     2     2     3 1   
     3     2     4 1   
     4     4     5 1   
     5     4    11 2   
     6     5     6 1   
     7     5    42 1   
     8     6     7 2   
     9     6     8 1   
    10     8     9 1   
    11     8    28 1   
    12     9    10 2   
    13     9    11 1   
    14    11    12 1   
    15    12    13 1   
    16    12    29 1   
    17    12    30 1   
    18    13    14 1   
    19    13    31 1   
    20    13    32 1   
    21    14    15 ar  
    22    14    16 ar  
    23    15    20 ar  
    24    15    33 1   
    25    16    17 ar  
    26    16    34 1   
    27    17    18 ar  
    28    17    35 1   
    29    18    19 ar  
    30    18    20 ar  
    31    19    23 ar  
    32    19    36 1   
    33    20    21 ar  
    34    21    22 ar  
    35    21    37 1   
    36    22    23 ar  
    37    22    38 1   
    38    23    24 1   
    39    24    25 2   
    40    24    26 1   
    41    26    27 1   
    42    27    39 1   
    43    27    40 1   
    44    27    41 1   
@<TRIPOS>SUBSTRUCTURE
     1 W7M         1 TEMP              0 ****  ****    0 ROOT
