@<TRIPOS>MOLECULE
W7M
   42    44     1     0     0
SMALL
abcg2


@<TRIPOS>ATOM
      1 OAB         -4.3910     3.2360    -0.1430 o          1 W7M      -0.687500
      2 CAR         -3.5590     2.3100    -0.1340 c          1 W7M       0.718200
      3 OAF         -2.3280     2.3870    -0.0670 o          1 W7M      -0.687500
      4 CAV         -4.1880     0.9020    -0.1980 cc         1 W7M       0.029400
      5 NAO         -5.5480     0.9480    -0.0610 ns         1 W7M      -0.493600
      6 CAX         -6.3750    -0.1290    -0.0440 c          1 W7M       0.606000
      7 OAD         -7.5840    -0.0550     0.0800 o          1 W7M      -0.608000
      8 NAP         -5.7110    -1.3190    -0.1770 ns         1 W7M      -0.471500
      9 CAY         -4.3480    -1.4990    -0.3270 c          1 W7M       0.579200
     10 OAE         -3.8970    -2.6290    -0.4190 o          1 W7M      -0.589000
     11 CAW         -3.5470    -0.2820    -0.3590 cd         1 W7M      -0.298400
     12 CAN         -2.0680    -0.4620    -0.5250 c3         1 W7M       0.020800
     13 CAM         -1.3540    -0.6510     0.8200 c3         1 W7M      -0.037100
     14 CAT          0.1290    -0.7740     0.6370 ca         1 W7M      -0.039300
     15 CAK          0.9340     0.3380     0.6360 ca         1 W7M      -0.104000
     16 CAG          0.7150    -2.0430     0.4080 ca         1 W7M      -0.100000
     17 CAI          2.0570    -2.1750     0.1930 ca         1 W7M      -0.108000
     18 CBA          2.8990    -1.0380     0.1910 ca         1 W7M      -0.067000
     19 CAL          4.2880    -1.1400    -0.0280 ca         1 W7M      -0.029000
     20 CAZ          2.3250     0.2390     0.4170 ca         1 W7M      -0.010000
     21 CAJ          3.1710     1.3740     0.4140 ca         1 W7M      -0.104000
     22 CAH          4.5140     1.2520     0.1980 ca         1 W7M      -0.082000
     23 CAU          5.0890    -0.0240    -0.0270 ca         1 W7M      -0.159600
     24 CAS          6.5420    -0.2060    -0.2620 c          1 W7M       0.609700
     25 OAC          7.0690    -1.2790    -0.4420 o          1 W7M      -0.508000
     26 OAQ          7.2060     0.9380    -0.2530 os         1 W7M      -0.438100
     27 CAA          8.6170     0.8860    -0.4640 c3         1 W7M       0.154900
     28 H2          -6.2810    -2.1550    -0.1520 hn         1 W7M       0.319500
     29 H4          -1.8880    -1.3380    -1.1520 hc         1 W7M       0.057700
     30 H5          -1.6380     0.3940    -1.0360 hc         1 W7M       0.057700
     31 H6          -1.5770     0.2060     1.4570 hc         1 W7M       0.056200
     32 H7          -1.7450    -1.5400     1.3210 hc         1 W7M       0.056200
     33 H8           0.4980     1.3170     0.8050 ha         1 W7M       0.145000
     34 H9           0.0800    -2.9210     0.4100 ha         1 W7M       0.119000
     35 H10          2.4910    -3.1530     0.0220 ha         1 W7M       0.106000
     36 H11          4.7180    -2.1190    -0.2000 ha         1 W7M       0.126000
     37 H12          2.7390     2.3520     0.5880 ha         1 W7M       0.122000
     38 H13          5.1330     2.1370     0.2000 ha         1 W7M       0.120000
     39 H14          8.8570     0.4640    -1.4390 h1         1 W7M       0.043367
     40 H15          8.9620     1.9150    -0.4200 h1         1 W7M       0.043367
     41 H16          9.1130     0.3040     0.3130 h1         1 W7M       0.043367
     42 H17         -5.9450     1.8770     0.0220 hn         1 W7M       0.489000
@<TRIPOS>BOND
     1     1     2 1   
     2     2     3 1   
     3     2     4 1   
     4     4     5 1   
     5     4    11 2   
     6     5     6 1   
     7     5    42 1   
     8     6     7 2   
     9     6     8 1   
    10     8     9 1   
    11     8    28 1   
    12     9    10 2   
    13     9    11 1   
    14    11    12 1   
    15    12    13 1   
    16    12    29 1   
    17    12    30 1   
    18    13    14 1   
    19    13    31 1   
    20    13    32 1   
    21    14    15 ar  
    22    14    16 ar  
    23    15    20 ar  
    24    15    33 1   
    25    16    17 ar  
    26    16    34 1   
    27    17    18 ar  
    28    17    35 1   
    29    18    19 ar  
    30    18    20 ar  
    31    19    23 ar  
    32    19    36 1   
    33    20    21 ar  
    34    21    22 ar  
    35    21    37 1   
    36    22    23 ar  
    37    22    38 1   
    38    23    24 1   
    39    24    25 2   
    40    24    26 1   
    41    26    27 1   
    42    27    39 1   
    43    27    40 1   
    44    27    41 1   
@<TRIPOS>SUBSTRUCTURE
     1 W7M         1 TEMP              0 ****  ****    0 ROOT
