@<TRIPOS>MOLECULE
W7N
   47    49     1     0     0
SMALL
No Charge or Current Charge


@<TRIPOS>ATOM
      1 OAA         -6.2110    -2.6930    -0.3280 o          1 W7N      -0.688500
      2 CAT         -5.1810    -2.0610    -0.1160 c          1 W7N       0.718200
      3 OAF         -4.0910    -2.6130    -0.0610 o          1 W7N      -0.688500
      4 CAY         -5.3090    -0.5540     0.0620 cc         1 W7N       0.028400
      5 NAR         -6.6040    -0.0510    -0.0610 ns         1 W7N      -0.494600
      6 CAZ         -6.9760     1.2480     0.0310 c          1 W7N       0.606000
      7 OAC         -8.1300     1.6100    -0.0890 o          1 W7N      -0.607000
      8 NAS         -5.9540     2.1010     0.2650 ns         1 W7N      -0.471500
      9 CBA         -4.6320     1.8150     0.4200 c          1 W7N       0.578200
     10 OAD         -3.8290     2.7120     0.6210 o          1 W7N      -0.589000
     11 CAX         -4.2870     0.3630     0.3180 cd         1 W7N      -0.296400
     12 CAP         -2.8110     0.0390     0.5060 c3         1 W7N       0.020800
     13 CAO         -2.0430    -0.0070    -0.8320 c3         1 W7N      -0.038100
     14 CAV         -0.5770    -0.3700    -0.6410 ca         1 W7N      -0.032300
     15 CAK          0.4020     0.6390    -0.5590 ca         1 W7N      -0.125000
     16 CAG         -0.1910    -1.7200    -0.5370 ca         1 W7N      -0.088000
     17 CAI          1.1610    -2.0600    -0.3560 ca         1 W7N      -0.109000
     18 CBC          2.1390    -1.0510    -0.2760 ca         1 W7N      -0.059000
     19 CAL          3.4940    -1.3860    -0.0950 ca         1 W7N      -0.029000
     20 CBB          1.7560     0.3020    -0.3780 ca         1 W7N      -0.018000
     21 CAJ          2.7330     1.3090    -0.2960 ca         1 W7N      -0.103000
     22 CAH          4.0860     0.9740    -0.1150 ca         1 W7N      -0.106000
     23 CAW          4.4860    -0.3820    -0.0110 ca         1 W7N      -0.173600
     24 CAU          5.9330    -0.7860     0.1840 c          1 W7N       0.616700
     25 OAB          6.2790    -1.9570     0.2720 o          1 W7N      -0.621100
     26 NAQ          6.8500     0.2360     0.2600 ns         1 W7N      -0.503900
     27 CAN          8.2980     0.0650     0.4330 c3         1 W7N       0.101000
     28 CAM          9.1050     1.2150    -0.2160 c3         1 W7N       0.142600
     29 OAE          8.6260     2.4930     0.2390 oh         1 W7N      -0.666000
     30 H2          -7.3630    -0.7010    -0.2430 hn         1 W7N       0.490000
     31 H3          -6.2030     3.0750     0.3340 hn         1 W7N       0.319500
     32 H4          -2.3250     0.7760     1.1570 hc         1 W7N       0.057200
     33 H5          -2.6810    -0.9090     1.0390 hc         1 W7N       0.057200
     34 H6          -2.5240    -0.7330    -1.4990 hc         1 W7N       0.057200
     35 H7          -2.1330     0.9670    -1.3290 hc         1 W7N       0.057200
     36 H8           0.1080     1.6830    -0.6340 ha         1 W7N       0.116000
     37 H9          -0.9410    -2.5060    -0.5950 ha         1 W7N       0.150000
     38 H10          1.4450    -3.1070    -0.2780 ha         1 W7N       0.112000
     39 H11          3.7750    -2.4350    -0.0180 ha         1 W7N       0.129000
     40 H12          2.4460     2.3550    -0.3730 ha         1 W7N       0.111000
     41 H13          4.8100     1.7830    -0.0570 ha         1 W7N       0.101000
     42 H14          6.4970     1.1810     0.1850 hn         1 W7N       0.327500
     43 H15          8.5220     0.0240     1.5070 h1         1 W7N       0.056700
     44 H16          8.6140    -0.8860    -0.0170 h1         1 W7N       0.056700
     45 H17         10.1670     1.0910     0.0330 h1         1 W7N       0.026200
     46 H18          9.0070     1.1440    -1.3070 h1         1 W7N       0.026200
     47 H19          9.1900     3.1780    -0.1860 ho         1 W7N       0.443000
@<TRIPOS>BOND
     1     1     2 1   
     2     2     3 1   
     3     2     4 1   
     4     4     5 1   
     5     4    11 2   
     6     5     6 1   
     7     5    30 1   
     8     6     7 2   
     9     6     8 1   
    10     8     9 1   
    11     8    31 1   
    12     9    10 2   
    13     9    11 1   
    14    11    12 1   
    15    12    13 1   
    16    12    32 1   
    17    12    33 1   
    18    13    14 1   
    19    13    34 1   
    20    13    35 1   
    21    14    15 ar  
    22    14    16 ar  
    23    15    20 ar  
    24    15    36 1   
    25    16    17 ar  
    26    16    37 1   
    27    17    18 ar  
    28    17    38 1   
    29    18    19 ar  
    30    18    20 ar  
    31    19    23 ar  
    32    19    39 1   
    33    20    21 ar  
    34    21    22 ar  
    35    21    40 1   
    36    22    23 ar  
    37    22    41 1   
    38    23    24 1   
    39    24    25 2   
    40    24    26 1   
    41    26    27 1   
    42    26    42 1   
    43    27    28 1   
    44    27    43 1   
    45    27    44 1   
    46    28    29 1   
    47    28    45 1   
    48    28    46 1   
    49    29    47 1   
@<TRIPOS>SUBSTRUCTURE
     1 W7N         1 TEMP              0 ****  ****    0 ROOT
