@<TRIPOS>MOLECULE
W7N
   47    49     1     0     0
SMALL
abcg2


@<TRIPOS>ATOM
      1 OAA         -6.1120    -2.6440     0.2120 o          1 W7N      -0.688500
      2 CAT         -5.0270    -2.0340     0.2110 c          1 W7N       0.718200
      3 OAF         -3.8850    -2.5040     0.1760 o          1 W7N      -0.688500
      4 CAY         -5.1710    -0.4990     0.2450 cc         1 W7N       0.028400
      5 NAR         -6.4780    -0.1120     0.1260 ns         1 W7N      -0.494600
      6 CAZ         -6.9210     1.1710     0.1030 c          1 W7N       0.606000
      7 OAC         -8.0930     1.4820     0.0010 o          1 W7N      -0.607000
      8 NAS         -5.9110     2.0910     0.2040 ns         1 W7N      -0.471500
      9 CBA         -4.5590     1.8300     0.3270 c          1 W7N       0.578200
     10 OAD         -3.7710     2.7600     0.3870 o          1 W7N      -0.589000
     11 CAX         -4.1840     0.4210     0.3700 cd         1 W7N      -0.296400
     12 CAP         -2.7200     0.1260     0.5030 c3         1 W7N       0.020800
     13 CAO         -2.0320    -0.0050    -0.8620 c3         1 W7N      -0.038100
     14 CAV         -0.5760    -0.3360    -0.7190 ca         1 W7N      -0.032300
     15 CAK          0.3960     0.6240    -0.8450 ca         1 W7N      -0.125000
     16 CAG         -0.1880    -1.6650    -0.4110 ca         1 W7N      -0.088000
     17 CAI          1.1260    -2.0000    -0.2500 ca         1 W7N      -0.109000
     18 CBC          2.1400    -1.0210    -0.3800 ca         1 W7N      -0.059000
     19 CAL          3.5060    -1.3360    -0.2290 ca         1 W7N      -0.029000
     20 CBB          1.7640     0.3130    -0.6790 ca         1 W7N      -0.018000
     21 CAJ          2.7790     1.2890    -0.8110 ca         1 W7N      -0.103000
     22 CAH          4.0950     0.9610    -0.6440 ca         1 W7N      -0.106000
     23 CAW          4.4750    -0.3690    -0.3430 ca         1 W7N      -0.173600
     24 CAU          5.9030    -0.7770    -0.1690 c          1 W7N       0.616700
     25 OAB          6.2610    -1.9330    -0.3600 o          1 W7N      -0.621100
     26 NAQ          6.7500     0.1950     0.2060 ns         1 W7N      -0.503900
     27 CAN          8.1610    -0.0240     0.4320 c3         1 W7N       0.101000
     28 CAM          8.9440     1.2470     0.1880 c3         1 W7N       0.142600
     29 OAE          8.4800     2.2350     1.0830 oh         1 W7N      -0.666000
     30 H2          -7.1480    -0.8700     0.0650 hn         1 W7N       0.490000
     31 H3          -6.1870     3.0640     0.1790 hn         1 W7N       0.319500
     32 H4          -2.2440     0.9350     1.0600 hc         1 W7N       0.057200
     33 H5          -2.5710    -0.7870     1.0720 hc         1 W7N       0.057200
     34 H6          -2.5330    -0.7900    -1.4310 hc         1 W7N       0.057200
     35 H7          -2.1480     0.9250    -1.4210 hc         1 W7N       0.057200
     36 H8           0.1180     1.6450    -1.0820 ha         1 W7N       0.116000
     37 H9          -0.9580    -2.4210    -0.3120 ha         1 W7N       0.150000
     38 H10          1.4060    -3.0220    -0.0220 ha         1 W7N       0.112000
     39 H11          3.7860    -2.3590    -0.0100 ha         1 W7N       0.129000
     40 H12          2.5020     2.3070    -1.0550 ha         1 W7N       0.111000
     41 H13          4.8440     1.7310    -0.7770 ha         1 W7N       0.101000
     42 H14          6.3780     1.0780     0.5200 hn         1 W7N       0.327500
     43 H15          8.3410    -0.3850     1.4500 h1         1 W7N       0.056700
     44 H16          8.5200    -0.7940    -0.2490 h1         1 W7N       0.056700
     45 H17         10.0080     1.0290     0.3370 h1         1 W7N       0.026200
     46 H18          8.8150     1.5560    -0.8560 h1         1 W7N       0.026200
     47 H19          8.8520     3.0820     0.8230 ho         1 W7N       0.443000
@<TRIPOS>BOND
     1     1     2 1   
     2     2     3 1   
     3     2     4 1   
     4     4     5 1   
     5     4    11 2   
     6     5     6 1   
     7     5    30 1   
     8     6     7 2   
     9     6     8 1   
    10     8     9 1   
    11     8    31 1   
    12     9    10 2   
    13     9    11 1   
    14    11    12 1   
    15    12    13 1   
    16    12    32 1   
    17    12    33 1   
    18    13    14 1   
    19    13    34 1   
    20    13    35 1   
    21    14    15 ar  
    22    14    16 ar  
    23    15    20 ar  
    24    15    36 1   
    25    16    17 ar  
    26    16    37 1   
    27    17    18 ar  
    28    17    38 1   
    29    18    19 ar  
    30    18    20 ar  
    31    19    23 ar  
    32    19    39 1   
    33    20    21 ar  
    34    21    22 ar  
    35    21    40 1   
    36    22    23 ar  
    37    22    41 1   
    38    23    24 1   
    39    24    25 2   
    40    24    26 1   
    41    26    27 1   
    42    26    42 1   
    43    27    28 1   
    44    27    43 1   
    45    27    44 1   
    46    28    29 1   
    47    28    45 1   
    48    28    46 1   
    49    29    47 1   
@<TRIPOS>SUBSTRUCTURE
     1 W7N         1 TEMP              0 ****  ****    0 ROOT
