@<TRIPOS>MOLECULE
W7O
   32    33     1     0     0
SMALL
No Charge or Current Charge


@<TRIPOS>ATOM
      1 OAA         -4.6140    -2.1230     0.0280 o          1 W7O      -0.731000
      2 CAO         -5.0380    -0.9850    -0.1210 c          1 W7O       0.711600
      3 OAE         -6.2090    -0.7470    -0.3820 o          1 W7O      -0.731000
      4 CAR         -4.0700     0.1790     0.0260 ca         1 W7O      -0.144600
      5 CAJ         -2.6970    -0.0520     0.2890 ca         1 W7O      -0.071000
      6 CAI         -4.5170     1.5160    -0.0950 ca         1 W7O      -0.100000
      7 CAG         -3.6180     2.5870     0.0420 ca         1 W7O      -0.165000
      8 CAH         -2.2620     2.3420     0.3030 ca         1 W7O      -0.138000
      9 CAQ         -1.7950     1.0220     0.4290 ca         1 W7O      -0.103300
     10 CAK         -0.3210     0.7540     0.7090 c3         1 W7O      -0.017100
     11 CAL          0.4910     0.5390    -0.5860 c3         1 W7O       0.009800
     12 CAS          1.9690     0.2790    -0.3220 cc         1 W7O      -0.274400
     13 CAV          2.8170     1.5080    -0.3340 c          1 W7O       0.574200
     14 OAD          2.4070     2.6440    -0.5180 o          1 W7O      -0.589000
     15 NAN          4.1420     1.2970    -0.1160 ns         1 W7O      -0.474500
     16 CAU          4.7720     0.1260     0.1100 c          1 W7O       0.602000
     17 OAC          5.9700     0.0410     0.2920 o          1 W7O      -0.634000
     18 NAM          3.9520    -0.9520     0.1210 ns         1 W7O      -0.493600
     19 CAT          2.5730    -0.9610    -0.0740 cd         1 W7O       0.012400
     20 CAP          1.8650    -2.3090     0.0150 c          1 W7O       0.711200
     21 OAF          2.5660    -3.2920     0.2320 o          1 W7O      -0.678500
     22 OAB          0.6520    -2.4000    -0.1110 o          1 W7O      -0.678500
     23 H2          -2.3260    -1.0700     0.3830 ha         1 W7O       0.153000
     24 H3          -5.5640     1.7300    -0.2970 ha         1 W7O       0.110000
     25 H4          -3.9750     3.6090    -0.0550 ha         1 W7O       0.069000
     26 H5          -1.5740     3.1780     0.4050 ha         1 W7O       0.080000
     27 H6           0.1150     1.5910     1.2680 hc         1 W7O       0.038700
     28 H7          -0.2140    -0.1280     1.3530 hc         1 W7O       0.038700
     29 H8           0.0460    -0.2730    -1.1700 hc         1 W7O       0.060700
     30 H9           0.3570     1.4200    -1.2260 hc         1 W7O       0.060700
     31 H10          4.7260     2.1170    -0.1240 hn         1 W7O       0.308500
     32 H11          4.4300    -1.8300     0.2980 hn         1 W7O       0.485000
@<TRIPOS>BOND
     1     1     2 1   
     2     2     3 1   
     3     2     4 1   
     4     4     5 ar  
     5     4     6 ar  
     6     5     9 ar  
     7     5    23 1   
     8     6     7 ar  
     9     6    24 1   
    10     7     8 ar  
    11     7    25 1   
    12     8     9 ar  
    13     8    26 1   
    14     9    10 1   
    15    10    11 1   
    16    10    27 1   
    17    10    28 1   
    18    11    12 1   
    19    11    29 1   
    20    11    30 1   
    21    12    13 1   
    22    12    19 2   
    23    13    14 2   
    24    13    15 1   
    25    15    16 1   
    26    15    31 1   
    27    16    17 2   
    28    16    18 1   
    29    18    19 1   
    30    18    32 1   
    31    19    20 1   
    32    20    21 1   
    33    20    22 1   
@<TRIPOS>SUBSTRUCTURE
     1 W7O         1 TEMP              0 ****  ****    0 ROOT
