@<TRIPOS>MOLECULE
W7O
   32    33     1     0     0
SMALL
bcc


@<TRIPOS>ATOM
      1 OAA         -4.3730    -2.1740     0.0340 o          1 W7O      -0.836300
      2 CAO         -4.8990    -1.0510    -0.0940 c          1 W7O       0.922200
      3 OAE         -6.1030    -0.8140    -0.3160 o          1 W7O      -0.836300
      4 CAR         -3.9780     0.1560     0.0360 ca         1 W7O      -0.144600
      5 CAJ         -2.6250    -0.0100     0.3120 ca         1 W7O      -0.089000
      6 CAI         -4.4730     1.4500    -0.1150 ca         1 W7O      -0.118000
      7 CAG         -3.6280     2.5440     0.0070 ca         1 W7O      -0.183000
      8 CAH         -2.2800     2.3580     0.2880 ca         1 W7O      -0.156000
      9 CAQ         -1.7630     1.0760     0.4480 ca         1 W7O      -0.103300
     10 CAK         -0.3000     0.8540     0.7090 c3         1 W7O      -0.017100
     11 CAL          0.4710     0.5850    -0.5910 c3         1 W7O       0.009800
     12 CAS          1.9270     0.3260    -0.3430 cc         1 W7O      -0.274400
     13 CAV          2.7950     1.4970    -0.3090 c          1 W7O       0.716700
     14 OAD          2.4170     2.6460    -0.4680 o          1 W7O      -0.664500
     15 NAN          4.1350     1.2480    -0.0730 ns         1 W7O      -0.608500
     16 CAU          4.7220     0.0280     0.1370 c          1 W7O       0.811500
     17 OAC          5.9160    -0.1080     0.3310 o          1 W7O      -0.709500
     18 NAM          3.8370    -1.0000     0.1100 ns         1 W7O      -0.447100
     19 CAT          2.4900    -0.8840    -0.1060 cd         1 W7O       0.012400
     20 CAP          1.7830    -2.2530    -0.0350 c          1 W7O       0.921800
     21 OAF          2.5620    -3.2210     0.0450 o          1 W7O      -0.783800
     22 OAB          0.5470    -2.2640    -0.0480 o          1 W7O      -0.783800
     23 H2          -2.2300    -1.0130     0.4270 ha         1 W7O       0.171000
     24 H3          -5.5240     1.5990    -0.3270 ha         1 W7O       0.128000
     25 H4          -4.0200     3.5470    -0.1120 ha         1 W7O       0.087000
     26 H5          -1.6260     3.2170     0.3860 ha         1 W7O       0.098000
     27 H6           0.1280     1.7250     1.2120 hc         1 W7O       0.038700
     28 H7          -0.1670    -0.0010     1.3730 hc         1 W7O       0.038700
     29 H8           0.0190    -0.2620    -1.1000 hc         1 W7O       0.060700
     30 H9           0.3720     1.4520    -1.2460 hc         1 W7O       0.060700
     31 H10          4.7500     2.0510    -0.0450 hn         1 W7O       0.308500
     32 H11          4.1720    -1.9460     0.2470 hn         1 W7O       0.371500
@<TRIPOS>BOND
     1     1     2 1   
     2     2     3 1   
     3     2     4 1   
     4     4     5 ar  
     5     4     6 ar  
     6     5     9 ar  
     7     5    23 1   
     8     6     7 ar  
     9     6    24 1   
    10     7     8 ar  
    11     7    25 1   
    12     8     9 ar  
    13     8    26 1   
    14     9    10 1   
    15    10    11 1   
    16    10    27 1   
    17    10    28 1   
    18    11    12 1   
    19    11    29 1   
    20    11    30 1   
    21    12    13 1   
    22    12    19 2   
    23    13    14 2   
    24    13    15 1   
    25    15    16 1   
    26    15    31 1   
    27    16    17 2   
    28    16    18 1   
    29    18    19 1   
    30    18    32 1   
    31    19    20 1   
    32    20    21 1   
    33    20    22 1   
@<TRIPOS>SUBSTRUCTURE
     1 W7O         1 TEMP              0 ****  ****    0 ROOT
