@<TRIPOS>MOLECULE
W7P
   32    33     1     0     0
SMALL
No Charge or Current Charge


@<TRIPOS>ATOM
      1 OAB         -3.4800    -3.1360    -0.1570 o          1 W7P      -0.687500
      2 CAP         -2.5840    -2.3200     0.0330 c          1 W7P       0.716200
      3 OAF         -1.4170    -2.6660     0.1440 o          1 W7P      -0.687500
      4 CAT         -2.9810    -0.8530     0.1120 cc         1 W7P       0.009400
      5 NAM         -4.3410    -0.5970    -0.0620 ns         1 W7P      -0.494600
      6 CAU         -4.9410     0.6170    -0.0570 c          1 W7P       0.603000
      7 OAC         -6.1370     0.7600    -0.2180 o          1 W7P      -0.631000
      8 NAN         -4.0930     1.6520     0.1400 ns         1 W7P      -0.473500
      9 CAV         -2.7450     1.6160     0.3330 c          1 W7P       0.573200
     10 OAD         -2.1210     2.6530     0.4920 o          1 W7P      -0.582000
     11 CAS         -2.1440     0.2450     0.3260 cd         1 W7P      -0.271400
     12 CAL         -0.6370     0.2060     0.5540 c3         1 W7P       0.009800
     13 CAK          0.1630     0.2510    -0.7650 c3         1 W7P      -0.016100
     14 CAQ          1.6680     0.2390    -0.5290 ca         1 W7P      -0.097300
     15 CAG          2.3850     1.4450    -0.4370 ca         1 W7P      -0.139000
     16 CAI          3.7730     1.4340    -0.2160 ca         1 W7P      -0.098500
     17 CAR          4.4760     0.2140    -0.0790 ca         1 W7P      -0.148600
     18 CAO          5.9800     0.2000     0.1600 c          1 W7P       0.714600
     19 OAE          6.5730     1.2680     0.2340 o          1 W7P      -0.739000
     20 OAA          6.5470    -0.8780     0.2720 o          1 W7P      -0.739000
     21 CAJ          3.7440    -0.9940    -0.1710 ca         1 W7P      -0.098500
     22 CAH          2.3560    -0.9790    -0.3930 ca         1 W7P      -0.139000
     23 H2          -4.5130     2.5680     0.1440 hn         1 W7P       0.311500
     24 H4          -0.3150     1.0470     1.1810 hc         1 W7P       0.059700
     25 H5          -0.3450    -0.6770     1.1310 hc         1 W7P       0.059700
     26 H6          -0.1270    -0.6010    -1.3910 hc         1 W7P       0.036700
     27 H7          -0.1230     1.1500    -1.3250 hc         1 W7P       0.036700
     28 H8           1.8660     2.3960    -0.5360 ha         1 W7P       0.099500
     29 H9           4.3020     2.3830    -0.1500 ha         1 W7P       0.115000
     30 H11          4.2500    -1.9520    -0.0700 ha         1 W7P       0.115000
     31 H12          1.8130    -1.9200    -0.4570 ha         1 W7P       0.099500
     32 H13         -4.9680    -1.3820    -0.2160 hn         1 W7P       0.484000
@<TRIPOS>BOND
     1     1     2 1   
     2     2     3 1   
     3     2     4 1   
     4     4     5 1   
     5     4    11 2   
     6     5     6 1   
     7     5    32 1   
     8     6     7 2   
     9     6     8 1   
    10     8     9 1   
    11     8    23 1   
    12     9    10 2   
    13     9    11 1   
    14    11    12 1   
    15    12    13 1   
    16    12    24 1   
    17    12    25 1   
    18    13    14 1   
    19    13    26 1   
    20    13    27 1   
    21    14    15 ar  
    22    14    22 ar  
    23    15    16 ar  
    24    15    28 1   
    25    16    17 ar  
    26    16    29 1   
    27    17    18 1   
    28    17    21 ar  
    29    18    19 1   
    30    18    20 1   
    31    21    22 ar  
    32    21    30 1   
    33    22    31 1   
@<TRIPOS>SUBSTRUCTURE
     1 W7P         1 TEMP              0 ****  ****    0 ROOT
