@<TRIPOS>MOLECULE
W7P
   32    33     1     0     0
SMALL
bcc


@<TRIPOS>ATOM
      1 OAB         -3.3770    -3.1020     0.0110 o          1 W7P      -0.792800
      2 CAP         -2.4370    -2.2870     0.0390 c          1 W7P       0.926800
      3 OAF         -1.2240    -2.5170    -0.0070 o          1 W7P      -0.792800
      4 CAT         -2.8850    -0.8130     0.1240 cc         1 W7P       0.009400
      5 NAM         -4.2350    -0.6840    -0.0590 ns         1 W7P      -0.448100
      6 CAU         -4.9210     0.4870    -0.0680 c          1 W7P       0.812500
      7 OAC         -6.1230     0.5680    -0.2370 o          1 W7P      -0.706500
      8 NAN         -4.1200     1.5800     0.1310 ns         1 W7P      -0.607500
      9 CAV         -2.7530     1.5830     0.3400 c          1 W7P       0.715700
     10 OAD         -2.1710     2.6440     0.4990 o          1 W7P      -0.657500
     11 CAS         -2.1080     0.2750     0.3460 cd         1 W7P      -0.271400
     12 CAL         -0.6230     0.2660     0.5550 c3         1 W7P       0.009800
     13 CAK          0.1470     0.4370    -0.7620 c3         1 W7P      -0.016100
     14 CAQ          1.6310     0.3470    -0.5530 ca         1 W7P      -0.097300
     15 CAG          2.4330     1.4850    -0.5050 ca         1 W7P      -0.157000
     16 CAI          3.7980     1.3880    -0.2700 ca         1 W7P      -0.116500
     17 CAR          4.4060     0.1510    -0.0760 ca         1 W7P      -0.148600
     18 CAO          5.9020     0.0460     0.1870 c          1 W7P       0.925200
     19 OAE          6.5350     1.1170     0.2520 o          1 W7P      -0.844300
     20 OAA          6.3690    -1.1030     0.3160 o          1 W7P      -0.844300
     21 CAJ          3.6040    -0.9880    -0.1280 ca         1 W7P      -0.116500
     22 CAH          2.2410    -0.8920    -0.3600 ca         1 W7P      -0.157000
     23 H2          -4.5800     2.4820     0.1200 hn         1 W7P       0.311500
     24 H4          -0.3550     1.0800     1.2320 hc         1 W7P       0.059700
     25 H5          -0.3170    -0.6620     1.0270 hc         1 W7P       0.059700
     26 H6          -0.1780    -0.3410    -1.4550 hc         1 W7P       0.036700
     27 H7          -0.1100     1.3980    -1.2120 hc         1 W7P       0.036700
     28 H8           1.9840     2.4600    -0.6590 ha         1 W7P       0.117500
     29 H9           4.4010     2.2860    -0.2370 ha         1 W7P       0.133000
     30 H11          4.0560    -1.9610     0.0150 ha         1 W7P       0.133000
     31 H12          1.6330    -1.7890    -0.3930 ha         1 W7P       0.117500
     32 H13         -4.7410    -1.5530    -0.1870 hn         1 W7P       0.370500
@<TRIPOS>BOND
     1     1     2 1   
     2     2     3 1   
     3     2     4 1   
     4     4     5 1   
     5     4    11 2   
     6     5     6 1   
     7     5    32 1   
     8     6     7 2   
     9     6     8 1   
    10     8     9 1   
    11     8    23 1   
    12     9    10 2   
    13     9    11 1   
    14    11    12 1   
    15    12    13 1   
    16    12    24 1   
    17    12    25 1   
    18    13    14 1   
    19    13    26 1   
    20    13    27 1   
    21    14    15 ar  
    22    14    22 ar  
    23    15    16 ar  
    24    15    28 1   
    25    16    17 ar  
    26    16    29 1   
    27    17    18 1   
    28    17    21 ar  
    29    18    19 1   
    30    18    20 1   
    31    21    22 ar  
    32    21    30 1   
    33    22    31 1   
@<TRIPOS>SUBSTRUCTURE
     1 W7P         1 TEMP              0 ****  ****    0 ROOT
