@<TRIPOS>MOLECULE
W7Q
   51    53     1     0     0
SMALL
No Charge or Current Charge


@<TRIPOS>ATOM
      1 OAD         -5.5440    -3.0760    -0.1630 o          1 W7Q      -0.689000
      2 CAS         -4.6440    -2.2600     0.0060 c          1 W7Q       0.718200
      3 OAH         -3.4720    -2.6050     0.0720 o          1 W7Q      -0.689000
      4 CAX         -5.0400    -0.7940     0.1170 cc         1 W7Q       0.025400
      5 NAP         -6.4040    -0.5380    -0.0110 ns         1 W7Q      -0.494600
      6 CAZ         -7.0040     0.6760     0.0280 c          1 W7Q       0.606000
      7 OAF         -8.2040     0.8200    -0.0930 o          1 W7Q      -0.609000
      8 NAQ         -6.1510     1.7090     0.2090 ns         1 W7Q      -0.472500
      9 CBA         -4.7980     1.6720     0.3590 c          1 W7Q       0.578200
     10 OAG         -4.1690     2.7070     0.5100 o          1 W7Q      -0.587000
     11 CAY         -4.1980     0.3030     0.3180 cd         1 W7Q      -0.292400
     12 CAN         -2.6860     0.2580     0.5000 c3         1 W7Q       0.018800
     13 CAL         -1.9290     0.2930    -0.8440 c3         1 W7Q      -0.028100
     14 CAU         -0.4200     0.2130    -0.6580 ca         1 W7Q      -0.077300
     15 CAK          0.2010    -1.0390    -0.4630 ca         1 W7Q      -0.060000
     16 CAI          0.3650     1.3890    -0.6710 ca         1 W7Q      -0.096000
     17 CAJ          1.7610     1.3190    -0.4940 ca         1 W7Q      -0.129000
     18 CAW          2.3520     0.0570    -0.3040 ca         1 W7Q      -0.039000
     19 CAV          1.5930    -1.0940    -0.2880 ca         1 W7Q      -0.142300
     20 CAM          2.4280    -2.3420    -0.0670 c5         1 W7Q      -0.037100
     21 CAO          3.8980    -1.7640     0.0570 c5         1 W7Q       0.114000
     22 NBB          3.7100    -0.2940    -0.1040 n          1 W7Q      -0.213400
     23 CAT          4.8240     0.5800    -0.0510 c          1 W7Q       0.659100
     24 OAE          4.7450     1.7940    -0.1750 o          1 W7Q      -0.544000
     25 OAR          5.9960    -0.1160     0.1580 os         1 W7Q      -0.476100
     26 CBC          7.2890     0.5250     0.2550 c3         1 W7Q       0.224000
     27 CAB          8.2720    -0.6430     0.4860 c3         1 W7Q      -0.107433
     28 CAC          7.6220     1.2380    -1.0810 c3         1 W7Q      -0.107433
     29 CAA          7.3090     1.4800     1.4780 c3         1 W7Q      -0.107433
     30 H2          -6.5700     2.6240     0.2370 hn         1 W7Q       0.318500
     31 H4          -2.3380     1.0980     1.1130 hc         1 W7Q       0.056700
     32 H5          -2.3840    -0.6260     1.0710 hc         1 W7Q       0.056700
     33 H6          -2.2710    -0.5380    -1.4720 hc         1 W7Q       0.051700
     34 H7          -2.1990     1.2100    -1.3820 hc         1 W7Q       0.051700
     35 H8          -0.3910    -1.9530    -0.4460 ha         1 W7Q       0.147000
     36 H9          -0.1080     2.3580    -0.8160 ha         1 W7Q       0.114000
     37 H10          2.3490     2.2320    -0.5070 ha         1 W7Q       0.136000
     38 H11          2.1320    -2.8780     0.8420 hc         1 W7Q       0.058200
     39 H12          2.3440    -3.0450    -0.9030 hc         1 W7Q       0.058200
     40 H13          4.3380    -2.0010     1.0340 h1         1 W7Q       0.045200
     41 H14          4.5520    -2.1670    -0.7270 h1         1 W7Q       0.045200
     42 H15          8.2370    -1.3530    -0.3500 hc         1 W7Q       0.047478
     43 H16          9.3010    -0.2760     0.5770 hc         1 W7Q       0.047478
     44 H17          8.0230    -1.1870     1.4060 hc         1 W7Q       0.047478
     45 H18          7.0390     2.1550    -1.2140 hc         1 W7Q       0.047478
     46 H19          8.6800     1.5210    -1.1090 hc         1 W7Q       0.047478
     47 H20          7.4270     0.5760    -1.9340 hc         1 W7Q       0.047478
     48 H21          6.9010     0.9830     2.3660 hc         1 W7Q       0.047478
     49 H22          8.3370     1.7870     1.7040 hc         1 W7Q       0.047478
     50 H23          6.7320     2.3930     1.2960 hc         1 W7Q       0.047478
     51 H24         -7.0350    -1.3210    -0.1540 hn         1 W7Q       0.489000
@<TRIPOS>BOND
     1     1     2 1   
     2     2     3 1   
     3     2     4 1   
     4     4     5 1   
     5     4    11 2   
     6     5     6 1   
     7     5    51 1   
     8     6     7 2   
     9     6     8 1   
    10     8     9 1   
    11     8    30 1   
    12     9    10 2   
    13     9    11 1   
    14    11    12 1   
    15    12    13 1   
    16    12    31 1   
    17    12    32 1   
    18    13    14 1   
    19    13    33 1   
    20    13    34 1   
    21    14    15 ar  
    22    14    16 ar  
    23    15    19 ar  
    24    15    35 1   
    25    16    17 ar  
    26    16    36 1   
    27    17    18 ar  
    28    17    37 1   
    29    18    19 ar  
    30    18    22 1   
    31    19    20 1   
    32    20    21 1   
    33    20    38 1   
    34    20    39 1   
    35    21    22 1   
    36    21    40 1   
    37    21    41 1   
    38    22    23 1   
    39    23    24 2   
    40    23    25 1   
    41    25    26 1   
    42    26    27 1   
    43    26    28 1   
    44    26    29 1   
    45    27    42 1   
    46    27    43 1   
    47    27    44 1   
    48    28    45 1   
    49    28    46 1   
    50    28    47 1   
    51    29    48 1   
    52    29    49 1   
    53    29    50 1   
@<TRIPOS>SUBSTRUCTURE
     1 W7Q         1 TEMP              0 ****  ****    0 ROOT
