@<TRIPOS>MOLECULE
W7Q
   51    53     1     0     0
SMALL
abcg2


@<TRIPOS>ATOM
      1 OAD         -5.3810    -3.0080     0.3360 o          1 W7Q      -0.689000
      2 CAS         -4.4370    -2.1980     0.2950 c          1 W7Q       0.718200
      3 OAH         -3.2250    -2.4360     0.2760 o          1 W7Q      -0.689000
      4 CAX         -4.8810    -0.7210     0.2430 cc         1 W7Q       0.025400
      5 NAP         -6.2350    -0.6070     0.0920 ns         1 W7Q      -0.494600
      6 CAZ         -6.9230     0.5580    -0.0090 c          1 W7Q       0.606000
      7 OAF         -8.1300     0.6250    -0.1460 o          1 W7Q      -0.609000
      8 NAQ         -6.1160     1.6640     0.0540 ns         1 W7Q      -0.472500
      9 CBA         -4.7420     1.6840     0.2090 c          1 W7Q       0.578200
     10 OAG         -4.1580     2.7550     0.2340 o          1 W7Q      -0.587000
     11 CAY         -4.0960     0.3820     0.3280 cd         1 W7Q      -0.292400
     12 CAN         -2.6040     0.3880     0.4780 c3         1 W7Q       0.018800
     13 CAL         -1.8870     0.3550    -0.8790 c3         1 W7Q      -0.028100
     14 CAU         -0.3980     0.2440    -0.7200 ca         1 W7Q      -0.077300
     15 CAK          0.1960    -1.0050    -0.5180 ca         1 W7Q      -0.060000
     16 CAI          0.4180     1.3690    -0.7190 ca         1 W7Q      -0.096000
     17 CAJ          1.7960     1.2910    -0.5250 ca         1 W7Q      -0.129000
     18 CAW          2.3600     0.0370    -0.3310 ca         1 W7Q      -0.039000
     19 CAV          1.5590    -1.1030    -0.3320 ca         1 W7Q      -0.142300
     20 CAM          2.3930    -2.3300    -0.1130 c5         1 W7Q      -0.037100
     21 CAO          3.8330    -1.7930    -0.0410 c5         1 W7Q       0.114000
     22 NBB          3.6970    -0.3310    -0.1310 n          1 W7Q      -0.213400
     23 CAT          4.7430     0.5290    -0.0320 c          1 W7Q       0.659100
     24 OAE          4.6360     1.7370    -0.0690 o          1 W7Q      -0.544000
     25 OAR          5.8780    -0.1450     0.1090 os         1 W7Q      -0.476100
     26 CBC          7.1660     0.5090     0.2760 c3         1 W7Q       0.224000
     27 CAB          8.1350    -0.6620     0.3780 c3         1 W7Q      -0.107433
     28 CAC          7.5130     1.3550    -0.9430 c3         1 W7Q      -0.107433
     29 CAA          7.1970     1.3220     1.5640 c3         1 W7Q      -0.107433
     30 H2          -6.5770     2.5600    -0.0340 hn         1 W7Q       0.318500
     31 H4          -2.3040     1.2930     1.0090 hc         1 W7Q       0.056700
     32 H5          -2.2770    -0.4580     1.0730 hc         1 W7Q       0.056700
     33 H6          -2.2650    -0.4940    -1.4510 hc         1 W7Q       0.051700
     34 H7          -2.1370     1.2570    -1.4420 hc         1 W7Q       0.051700
     35 H8          -0.4240    -1.8950    -0.5080 ha         1 W7Q       0.147000
     36 H9          -0.0250     2.3450    -0.8800 ha         1 W7Q       0.114000
     37 H10          2.3920     2.1890    -0.5330 ha         1 W7Q       0.136000
     38 H11          2.1120    -2.8420     0.8080 hc         1 W7Q       0.058200
     39 H12          2.2760    -3.0480    -0.9250 hc         1 W7Q       0.058200
     40 H13          4.3220    -2.0710     0.8910 h1         1 W7Q       0.045200
     41 H14          4.4420    -2.1670    -0.8640 h1         1 W7Q       0.045200
     42 H15          8.1050    -1.2790    -0.5200 hc         1 W7Q       0.047478
     43 H16          9.1520    -0.2870     0.4940 hc         1 W7Q       0.047478
     44 H17          7.9110    -1.2940     1.2390 hc         1 W7Q       0.047478
     45 H18          6.8660     2.2230    -1.0470 hc         1 W7Q       0.047478
     46 H19          8.5380     1.7130    -0.8470 hc         1 W7Q       0.047478
     47 H20          7.4570     0.7630    -1.8580 hc         1 W7Q       0.047478
     48 H21          6.8990     0.7110     2.4180 hc         1 W7Q       0.047478
     49 H22          8.2160     1.6650     1.7460 hc         1 W7Q       0.047478
     50 H23          6.5530     2.1980     1.5220 hc         1 W7Q       0.047478
     51 H24         -6.7420    -1.4850     0.0630 hn         1 W7Q       0.489000
@<TRIPOS>BOND
     1     1     2 1   
     2     2     3 1   
     3     2     4 1   
     4     4     5 1   
     5     4    11 2   
     6     5     6 1   
     7     5    51 1   
     8     6     7 2   
     9     6     8 1   
    10     8     9 1   
    11     8    30 1   
    12     9    10 2   
    13     9    11 1   
    14    11    12 1   
    15    12    13 1   
    16    12    31 1   
    17    12    32 1   
    18    13    14 1   
    19    13    33 1   
    20    13    34 1   
    21    14    15 ar  
    22    14    16 ar  
    23    15    19 ar  
    24    15    35 1   
    25    16    17 ar  
    26    16    36 1   
    27    17    18 ar  
    28    17    37 1   
    29    18    19 ar  
    30    18    22 1   
    31    19    20 1   
    32    20    21 1   
    33    20    38 1   
    34    20    39 1   
    35    21    22 1   
    36    21    40 1   
    37    21    41 1   
    38    22    23 1   
    39    23    24 2   
    40    23    25 1   
    41    25    26 1   
    42    26    27 1   
    43    26    28 1   
    44    26    29 1   
    45    27    42 1   
    46    27    43 1   
    47    27    44 1   
    48    28    45 1   
    49    28    46 1   
    50    28    47 1   
    51    29    48 1   
    52    29    49 1   
    53    29    50 1   
@<TRIPOS>SUBSTRUCTURE
     1 W7Q         1 TEMP              0 ****  ****    0 ROOT
