@<TRIPOS>MOLECULE
W7R
   62    66     1     0     0
SMALL
abcg2


@<TRIPOS>ATOM
      1 C1          23.4580    14.1920    33.2130 c6         1 W7R       0.163300
      2 C2          22.0410    13.6630    33.0390 c6         1 W7R       0.126800
      3 C3          20.0450    12.9770    34.2640 c3         1 W7R       0.203100
      4 C7          17.4510    15.5490    31.9730 ca         1 W7R      -0.116000
      5 C8          17.9000    15.9790    33.2100 ca         1 W7R      -0.063000
      6 C9          18.7500    15.1970    33.9940 ca         1 W7R      -0.116600
      7 C10         19.1240    15.8100    35.3170 c          1 W7R       0.614700
      8 C11         20.7450    16.0270    37.0830 c3         1 W7R       0.226900
      9 C12         22.1470    15.3480    38.8360 ce         1 W7R       0.546500
     10 C13         23.1680    14.4230    39.3800 ca         1 W7R      -0.142900
     11 C14         24.1480    14.8760    40.2610 ca         1 W7R      -0.078000
     12 C15         25.1270    14.0090    40.7250 ca         1 W7R      -0.118000
     13 C16         25.1260    12.6800    40.3260 ca         1 W7R      -0.091000
     14 C19         21.6250    16.4050    39.7250 ca         1 W7R      -0.190900
     15 C20         21.3520    16.1360    41.0660 ca         1 W7R      -0.109000
     16 C21         20.8960    17.1480    41.8850 ca         1 W7R       0.308900
     17 C22         20.9650    18.6620    40.1910 ca         1 W7R       0.304900
     18 C24         21.3600    17.4130    36.8250 c          1 W7R       0.548000
     19 O1          21.5720    17.8520    35.7200 o          1 W7R      -0.502000
     20 N4          21.6560    18.1070    37.9600 ns         1 W7R      -0.156000
     21 C23         21.4030    17.7060    39.2680 ca         1 W7R      -0.051000
     22 N3          20.7230    18.3970    41.4580 nb         1 W7R      -0.630000
     23 C18         23.1750    13.0870    38.9820 ca         1 W7R      -0.078000
     24 C17         24.1460    12.2190    39.4550 ca         1 W7R      -0.118000
     25 N2          21.7690    15.1820    37.6330 n2         1 W7R      -0.597900
     26 N1          20.2890    15.4390    35.8650 ns         1 W7R      -0.495900
     27 O           18.3860    16.6340    35.8450 o          1 W7R      -0.625100
     28 C6          17.8360    14.3040    31.5040 ca         1 W7R      -0.093000
     29 C5          18.6690    13.5130    32.2790 ca         1 W7R      -0.122000
     30 C4          19.1470    13.9340    33.5190 ca         1 W7R      -0.060300
     31 N           21.4270    13.4350    34.3390 n3         1 W7R      -0.728600
     32 C25         22.2420    12.5230    35.1250 c6         1 W7R       0.125800
     33 C26         23.6470    13.0730    35.2560 c6         1 W7R       0.152600
     34 O2          24.2330    13.3050    33.9970 os         1 W7R      -0.454000
     35 C           24.1510    14.3740    31.8800 c3         1 W7R      -0.088100
     36 H1          23.3900    15.1650    33.7260 h1         1 W7R       0.053700
     37 H2          21.4590    14.4030    32.4860 h1         1 W7R       0.049700
     38 H3          22.0580    12.7390    32.4380 h1         1 W7R       0.049700
     39 H4          19.6880    12.8410    35.2900 h1         1 W7R       0.047700
     40 H5          19.9840    11.9930    33.7800 h1         1 W7R       0.047700
     41 H6          16.8010    16.1830    31.3840 ha         1 W7R       0.119000
     42 H7          17.5870    16.9460    33.5780 ha         1 W7R       0.139000
     43 H8          19.8980    16.1520    37.7710 h2         1 W7R       0.093700
     44 H9          24.1630    15.9120    40.5750 ha         1 W7R       0.122000
     45 H10         25.8900    14.3740    41.3990 ha         1 W7R       0.117500
     46 H11         25.8860    12.0030    40.6950 ha         1 W7R       0.116000
     47 H12         21.4950    15.1410    41.4640 ha         1 W7R       0.135000
     48 H13         20.6680    16.9500    42.9250 h4         1 W7R       0.028100
     49 H14         20.8150    19.6860    39.8600 h4         1 W7R       0.028100
     50 H15         21.9440    19.0680    37.8240 hn         1 W7R       0.163000
     51 H16         22.4050    12.7240    38.3150 ha         1 W7R       0.122000
     52 H17         24.1340    11.1810    39.1490 ha         1 W7R       0.117500
     53 H18         20.9410    14.8310    35.3400 hn         1 W7R       0.386500
     54 H19         17.4900    13.9460    30.5430 ha         1 W7R       0.116000
     55 H20         18.9620    12.5370    31.9110 ha         1 W7R       0.111000
     56 H22         21.8010    12.4170    36.1180 h1         1 W7R       0.043700
     57 H23         22.2660    11.5210    34.6690 h1         1 W7R       0.043700
     58 H24         24.2780    12.3570    35.7850 h1         1 W7R       0.059200
     59 H25         23.6170    13.9970    35.8490 h1         1 W7R       0.059200
     60 H26         25.1640    14.7550    32.0130 hc         1 W7R       0.045033
     61 H27         24.2060    13.4320    31.3330 hc         1 W7R       0.045033
     62 H28         23.6050    15.0900    31.2650 hc         1 W7R       0.045033
@<TRIPOS>BOND
     1     1     2 1   
     2     1    34 1   
     3     1    35 1   
     4     1    36 1   
     5     2    31 1   
     6     2    37 1   
     7     2    38 1   
     8     3    30 1   
     9     3    31 1   
    10     3    39 1   
    11     3    40 1   
    12     4     5 ar  
    13     4    28 ar  
    14     4    41 1   
    15     5     6 ar  
    16     5    42 1   
    17     6     7 1   
    18     6    30 ar  
    19     7    26 1   
    20     7    27 2   
    21     8    18 1   
    22     8    25 1   
    23     8    26 1   
    24     8    43 1   
    25     9    10 1   
    26     9    14 1   
    27     9    25 2   
    28    10    11 ar  
    29    10    23 ar  
    30    11    12 ar  
    31    11    44 1   
    32    12    13 ar  
    33    12    45 1   
    34    13    24 ar  
    35    13    46 1   
    36    14    15 ar  
    37    14    21 ar  
    38    15    16 ar  
    39    15    47 1   
    40    16    22 ar  
    41    16    48 1   
    42    17    21 ar  
    43    17    22 ar  
    44    17    49 1   
    45    18    19 2   
    46    18    20 1   
    47    20    21 1   
    48    20    50 1   
    49    23    24 ar  
    50    23    51 1   
    51    24    52 1   
    52    26    53 1   
    53    28    29 ar  
    54    28    54 1   
    55    29    30 ar  
    56    29    55 1   
    57    31    32 1   
    58    32    33 1   
    59    32    56 1   
    60    32    57 1   
    61    33    34 1   
    62    33    58 1   
    63    33    59 1   
    64    35    60 1   
    65    35    61 1   
    66    35    62 1   
@<TRIPOS>SUBSTRUCTURE
     1 W7R         1 TEMP              0 ****  ****    0 ROOT
