@<TRIPOS>MOLECULE
W7R
   62    66     1     0     0
SMALL
No Charge or Current Charge


@<TRIPOS>ATOM
      1 C1          23.5480    14.4720    33.2830 c6         1 W7R       0.163300
      2 C2          22.1450    13.8240    33.0620 c6         1 W7R       0.126800
      3 C3          20.1040    12.9780    34.2390 c3         1 W7R       0.203100
      4 C7          17.2690    15.2490    31.8310 ca         1 W7R      -0.116000
      5 C8          17.6070    15.7360    33.1020 ca         1 W7R      -0.063000
      6 C9          18.5480    15.0710    33.9260 ca         1 W7R      -0.116600
      7 C10         18.8510    15.7230    35.2720 c          1 W7R       0.614700
      8 C11         20.5070    16.0210    37.1260 c3         1 W7R       0.226900
      9 C12         21.9730    15.2520    38.8990 ce         1 W7R       0.546500
     10 C13         22.9590    14.2350    39.3950 ca         1 W7R      -0.142900
     11 C14         24.1120    14.6440    40.1050 ca         1 W7R      -0.078000
     12 C15         25.0670    13.7010    40.5210 ca         1 W7R      -0.118000
     13 C16         24.8930    12.3410    40.2210 ca         1 W7R      -0.091000
     14 C19         21.7070    16.4590    39.7600 ca         1 W7R      -0.190900
     15 C20         21.5910    16.2910    41.1600 ca         1 W7R      -0.109000
     16 C21         21.3750    17.4020    41.9930 ca         1 W7R       0.308900
     17 C22         21.3610    18.8380    40.1840 ca         1 W7R       0.304900
     18 C24         21.2830    17.3390    36.7910 c          1 W7R       0.548000
     19 O1          21.5490    17.7110    35.6520 o          1 W7R      -0.502000
     20 N4          21.6280    18.1010    37.8870 ns         1 W7R      -0.156000
     21 C23         21.5550    17.7820    39.2650 ca         1 W7R      -0.051000
     22 N3          21.2680    18.6630    41.5210 nb         1 W7R      -0.630000
     23 C18         22.8070    12.8650    39.0820 ca         1 W7R      -0.078000
     24 C17         23.7640    11.9240    39.4990 ca         1 W7R      -0.118000
     25 N2          21.3640    15.0290    37.7750 n2         1 W7R      -0.597900
     26 N1          20.0140    15.3930    35.9080 ns         1 W7R      -0.495900
     27 O           18.0880    16.5370    35.7790 o          1 W7R      -0.625100
     28 C6          17.8620    14.0770    31.3520 ca         1 W7R      -0.093000
     29 C5          18.7830    13.3890    32.1520 ca         1 W7R      -0.122000
     30 C4          19.1370    13.8580    33.4370 ca         1 W7R      -0.060300
     31 N           21.4670    13.5450    34.3660 n3         1 W7R      -0.728600
     32 C25         22.3510    12.7340    35.2550 c6         1 W7R       0.125800
     33 C26         23.7440    13.4040    35.4360 c6         1 W7R       0.152600
     34 O2          24.3570    13.6370    34.1450 os         1 W7R      -0.454000
     35 C           24.3290    14.6560    31.9600 c3         1 W7R      -0.088100
     36 H1          23.4220    15.4560    33.7580 h1         1 W7R       0.053700
     37 H2          21.5390    14.5070    32.4490 h1         1 W7R       0.049700
     38 H3          22.2640    12.8930    32.4880 h1         1 W7R       0.049700
     39 H4          19.6710    12.8150    35.2360 h1         1 W7R       0.047700
     40 H5          20.1630    11.9870    33.7700 h1         1 W7R       0.047700
     41 H6          16.5490    15.7850    31.2160 ha         1 W7R       0.119000
     42 H7          17.1360    16.6570    33.4420 ha         1 W7R       0.139000
     43 H8          19.6450    16.2710    37.7590 h2         1 W7R       0.093700
     44 H9          24.2760    15.6970    40.3280 ha         1 W7R       0.122000
     45 H10         25.9470    14.0270    41.0710 ha         1 W7R       0.117500
     46 H11         25.6350    11.6120    40.5430 ha         1 W7R       0.116000
     47 H12         21.6720    15.3050    41.6120 ha         1 W7R       0.135000
     48 H13         21.2910    17.2780    43.0720 h4         1 W7R       0.028100
     49 H14         21.2630    19.8650    39.8310 h4         1 W7R       0.028100
     50 H15         22.0350    19.0020    37.6730 hn         1 W7R       0.163000
     51 H16         21.9350    12.5230    38.5290 ha         1 W7R       0.122000
     52 H17         23.6300    10.8710    39.2610 ha         1 W7R       0.117500
     53 H18         20.6340    14.7510    35.4210 hn         1 W7R       0.386500
     54 H19         17.6040    13.6970    30.3660 ha         1 W7R       0.116000
     55 H20         19.2250    12.4710    31.7690 ha         1 W7R       0.111000
     56 H22         21.8860    12.6080    36.2420 h1         1 W7R       0.043700
     57 H23         22.4950    11.7270    34.8360 h1         1 W7R       0.043700
     58 H24         24.3960    12.7550    36.0370 h1         1 W7R       0.059200
     59 H25         23.6320    14.3610    35.9650 h1         1 W7R       0.059200
     60 H26         25.3080    15.1150    32.1420 hc         1 W7R       0.045033
     61 H27         24.4930    13.6960    31.4570 hc         1 W7R       0.045033
     62 H28         23.7810    15.3080    31.2700 hc         1 W7R       0.045033
@<TRIPOS>BOND
     1     1     2 1   
     2     1    34 1   
     3     1    35 1   
     4     1    36 1   
     5     2    31 1   
     6     2    37 1   
     7     2    38 1   
     8     3    30 1   
     9     3    31 1   
    10     3    39 1   
    11     3    40 1   
    12     4     5 ar  
    13     4    28 ar  
    14     4    41 1   
    15     5     6 ar  
    16     5    42 1   
    17     6     7 1   
    18     6    30 ar  
    19     7    26 1   
    20     7    27 2   
    21     8    18 1   
    22     8    25 1   
    23     8    26 1   
    24     8    43 1   
    25     9    10 1   
    26     9    14 1   
    27     9    25 2   
    28    10    11 ar  
    29    10    23 ar  
    30    11    12 ar  
    31    11    44 1   
    32    12    13 ar  
    33    12    45 1   
    34    13    24 ar  
    35    13    46 1   
    36    14    15 ar  
    37    14    21 ar  
    38    15    16 ar  
    39    15    47 1   
    40    16    22 ar  
    41    16    48 1   
    42    17    21 ar  
    43    17    22 ar  
    44    17    49 1   
    45    18    19 2   
    46    18    20 1   
    47    20    21 1   
    48    20    50 1   
    49    23    24 ar  
    50    23    51 1   
    51    24    52 1   
    52    26    53 1   
    53    28    29 ar  
    54    28    54 1   
    55    29    30 ar  
    56    29    55 1   
    57    31    32 1   
    58    32    33 1   
    59    32    56 1   
    60    32    57 1   
    61    33    34 1   
    62    33    58 1   
    63    33    59 1   
    64    35    60 1   
    65    35    61 1   
    66    35    62 1   
@<TRIPOS>SUBSTRUCTURE
     1 W7R         1 TEMP              0 ****  ****    0 ROOT
