@<TRIPOS>MOLECULE
W7S
   27    28     1     0     0
SMALL
No Charge or Current Charge


@<TRIPOS>ATOM
      1 C10        -45.8210   -31.0920     0.0330 ca         1 W7S      -0.094000
      2 C15        -48.7060   -29.6070     6.1330 ca         1 W7S       0.284900
      3 C02        -47.0830   -28.9370     2.8410 c          1 W7S       0.510600
      4 C04        -44.8700   -29.8610     2.0440 c3         1 W7S       0.155300
      5 C05        -45.0700   -31.1280     1.2250 ca         1 W7S      -0.104300
      6 C06        -44.5090   -32.3480     1.6530 ca         1 W7S      -0.094000
      7 C07        -44.6970   -33.5180     0.8960 ca         1 W7S      -0.110000
      8 C08        -45.4460   -33.4760    -0.2920 ca         1 W7S      -0.105000
      9 C09        -46.0080   -32.2620    -0.7230 ca         1 W7S      -0.110000
     10 C11        -48.0630   -28.9420     4.0060 ca         1 W7S       0.234500
     11 C12        -49.2690   -28.1970     3.8880 ca         1 W7S       0.344900
     12 C14        -49.9060   -28.8590     6.0030 ca         1 W7S       0.303900
     13 N03        -45.9380   -29.6880     3.0280 ns         1 W7S      -0.486900
     14 N13        -50.2030   -28.1450     4.8820 nb         1 W7S      -0.635000
     15 N16        -47.7710   -29.6610     5.1430 nb         1 W7S      -0.643000
     16 O01        -47.2780   -28.3150     1.8020 o          1 W7S      -0.590100
     17 H101       -46.2620   -30.1570    -0.3050 ha         1 W7S       0.111000
     18 H041       -43.9100   -29.9130     2.5750 h1         1 W7S       0.057700
     19 H042       -44.8310   -28.9880     1.3800 h1         1 W7S       0.057700
     20 H061       -43.9300   -32.3900     2.5720 ha         1 W7S       0.111000
     21 H071       -44.2620   -34.4570     1.2310 ha         1 W7S       0.112000
     22 H081       -45.5910   -34.3810    -0.8770 ha         1 W7S       0.112000
     23 H091       -46.5900   -32.2280    -1.6420 ha         1 W7S       0.112000
     24 H121       -49.4930   -27.6310     2.9850 h4         1 W7S       0.057100
     25 H141       -50.6360   -28.8340     6.8110 h4         1 W7S       0.033100
     26 H031       -45.8700   -30.1710     3.9180 hn         1 W7S       0.341500
     27 H151       -48.4940   -30.1690     7.0410 h4         1 W7S       0.033100
@<TRIPOS>BOND
     1     1     5 ar  
     2     1     9 ar  
     3     1    17 1   
     4     2    12 ar  
     5     2    15 ar  
     6     2    27 1   
     7     3    10 1   
     8     3    13 1   
     9     3    16 2   
    10     4     5 1   
    11     4    13 1   
    12     4    18 1   
    13     4    19 1   
    14     5     6 ar  
    15     6     7 ar  
    16     6    20 1   
    17     7     8 ar  
    18     7    21 1   
    19     8     9 ar  
    20     8    22 1   
    21     9    23 1   
    22    10    11 ar  
    23    10    15 ar  
    24    11    14 ar  
    25    11    24 1   
    26    12    14 ar  
    27    12    25 1   
    28    13    26 1   
@<TRIPOS>SUBSTRUCTURE
     1 W7S         1 TEMP              0 ****  ****    0 ROOT
