@<TRIPOS>MOLECULE
W7S
   27    28     1     0     0
SMALL
bcc


@<TRIPOS>ATOM
      1 C10        -45.1130   -30.9740    -0.2310 ca         1 W7S      -0.112000
      2 C15        -48.2730   -29.3070     6.2800 ca         1 W7S       0.284900
      3 C02        -47.2140   -29.2610     2.8000 c          1 W7S       0.577600
      4 C04        -44.9840   -29.7320     1.9530 c3         1 W7S       0.155300
      5 C05        -45.1910   -30.9990     1.1570 ca         1 W7S      -0.104300
      6 C06        -45.4250   -32.2150     1.7940 ca         1 W7S      -0.112000
      7 C07        -45.5780   -33.3810     1.0580 ca         1 W7S      -0.128000
      8 C08        -45.4930   -33.3470    -0.3300 ca         1 W7S      -0.123000
      9 C09        -45.2590   -32.1400    -0.9720 ca         1 W7S      -0.128000
     10 C11        -48.0640   -29.1590     4.0320 ca         1 W7S       0.234500
     11 C12        -49.4080   -28.8190     3.9270 ca         1 W7S       0.344900
     12 C14        -49.6170   -28.9650     6.1730 ca         1 W7S       0.303900
     13 N03        -45.9330   -29.5620     3.0270 ns         1 W7S      -0.553900
     14 N13        -50.1810   -28.7220     5.0000 nb         1 W7S      -0.635000
     15 N16        -47.5040   -29.4020     5.2100 nb         1 W7S      -0.643000
     16 O01        -47.6890   -29.0690     1.6910 o          1 W7S      -0.590100
     17 H101       -44.9370   -30.0330    -0.7400 ha         1 W7S       0.129000
     18 H041       -43.9920   -29.7380     2.4060 h1         1 W7S       0.057700
     19 H042       -45.0200   -28.8690     1.2860 h1         1 W7S       0.057700
     20 H061       -45.4920   -32.2560     2.8750 ha         1 W7S       0.129000
     21 H071       -45.7620   -34.3180     1.5670 ha         1 W7S       0.130000
     22 H081       -45.6140   -34.2560    -0.9050 ha         1 W7S       0.130000
     23 H091       -45.1990   -32.1020    -2.0520 ha         1 W7S       0.130000
     24 H121       -49.8610   -28.6210     2.9650 h4         1 W7S       0.057100
     25 H141       -50.2380   -28.8890     7.0570 h4         1 W7S       0.033100
     26 H031       -45.6400   -29.7160     3.9790 hn         1 W7S       0.341500
     27 H151       -47.8230   -29.5050     7.2450 h4         1 W7S       0.033100
@<TRIPOS>BOND
     1     1     5 ar  
     2     1     9 ar  
     3     1    17 1   
     4     2    12 ar  
     5     2    15 ar  
     6     2    27 1   
     7     3    10 1   
     8     3    13 1   
     9     3    16 2   
    10     4     5 1   
    11     4    13 1   
    12     4    18 1   
    13     4    19 1   
    14     5     6 ar  
    15     6     7 ar  
    16     6    20 1   
    17     7     8 ar  
    18     7    21 1   
    19     8     9 ar  
    20     8    22 1   
    21     9    23 1   
    22    10    11 ar  
    23    10    15 ar  
    24    11    14 ar  
    25    11    24 1   
    26    12    14 ar  
    27    12    25 1   
    28    13    26 1   
@<TRIPOS>SUBSTRUCTURE
     1 W7S         1 TEMP              0 ****  ****    0 ROOT
