@<TRIPOS>MOLECULE
W7T
   33    33     1     0     0
SMALL
abcg2


@<TRIPOS>ATOM
      1 N1          43.9670     2.5560    22.4920 n8         1 W7T      -0.998200
      2 C7          47.3050     1.7650    23.3100 c          1 W7T       0.605100
      3 C8          45.6310     0.9120    21.6920 c3         1 W7T       0.103000
      4 C9          44.4320     1.7850    21.3360 c3         1 W7T       0.130800
      5 C1          51.3080    -0.1090    23.6710 c6         1 W7T      -0.071400
      6 C5          52.2660     2.1160    24.3780 c6         1 W7T      -0.071400
      7 C6          48.5350     2.6370    23.4680 c3         1 W7T      -0.151400
      8 C4          50.8910     2.8130    24.3680 c6         1 W7T      -0.071400
      9 C3          49.7400     1.8540    24.0040 c6         1 W7T      -0.056700
     10 C2          50.2350     0.7890    23.0230 c6         1 W7T      -0.071400
     11 O           46.8140     1.1690    24.2740 o          1 W7T      -0.615100
     12 N           46.8100     1.6760    22.0610 ns         1 W7T      -0.496900
     13 C           52.1290     0.6380    24.7400 c6         1 W7T      -0.074400
     14 H1          43.2160     3.1780    22.2120 hn         1 W7T       0.398000
     15 H2          43.5740     1.9290    23.1870 hn         1 W7T       0.398000
     16 H4          45.3860     0.2630    22.5310 h1         1 W7T       0.057200
     17 H5          45.8760     0.2790    20.8360 h1         1 W7T       0.057200
     18 H6          43.6610     1.1270    20.9130 h1         1 W7T       0.029200
     19 H7          44.7200     2.4890    20.5500 h1         1 W7T       0.029200
     20 H9          51.9750    -0.4890    22.8920 hc         1 W7T       0.037700
     21 H10         52.9380     2.6250    25.0730 hc         1 W7T       0.037700
     22 H11         52.7280     2.1940    23.3890 hc         1 W7T       0.037700
     23 H12         48.7980     3.1150    22.5210 hc         1 W7T       0.057200
     24 H13         48.2770     3.4300    24.1760 hc         1 W7T       0.057200
     25 H14         50.9110     3.6420    23.6540 hc         1 W7T       0.037450
     26 H15         50.6860     3.2520    25.3490 hc         1 W7T       0.037450
     27 H16         49.4120     1.3440    24.9140 hc         1 W7T       0.070700
     28 H17         50.6450     1.2960    22.1430 hc         1 W7T       0.037450
     29 H18         49.4040     0.1770    22.6660 hc         1 W7T       0.037450
     30 H19         47.2690     2.2030    21.3350 hn         1 W7T       0.306500
     31 H20         51.6340     0.5560    25.7120 hc         1 W7T       0.040200
     32 H21         53.1110     0.1730    24.8510 hc         1 W7T       0.040200
     33 H8          50.8310    -0.9820    24.1250 hc         1 W7T       0.037700
@<TRIPOS>BOND
     1     1     4 1   
     2     1    14 1   
     3     1    15 1   
     4     2     7 1   
     5     2    11 2   
     6     2    12 1   
     7     3     4 1   
     8     3    12 1   
     9     3    16 1   
    10     3    17 1   
    11     4    18 1   
    12     4    19 1   
    13     5    10 1   
    14     5    13 1   
    15     5    20 1   
    16     5    33 1   
    17     6     8 1   
    18     6    13 1   
    19     6    21 1   
    20     6    22 1   
    21     7     9 1   
    22     7    23 1   
    23     7    24 1   
    24     8     9 1   
    25     8    25 1   
    26     8    26 1   
    27     9    10 1   
    28     9    27 1   
    29    10    28 1   
    30    10    29 1   
    31    12    30 1   
    32    13    31 1   
    33    13    32 1   
@<TRIPOS>SUBSTRUCTURE
     1 W7T         1 TEMP              0 ****  ****    0 ROOT
