@<TRIPOS>MOLECULE
W7T
   33    33     1     0     0
SMALL
No Charge or Current Charge


@<TRIPOS>ATOM
      1 N1          44.0220     2.7250    22.3170 n8         1 W7T      -0.998200
      2 C7          47.2200     1.7700    23.4200 c          1 W7T       0.605100
      3 C8          45.6130     0.8340    21.7100 c3         1 W7T       0.103000
      4 C9          44.4510     1.7660    21.2700 c3         1 W7T       0.130800
      5 C1          51.3440    -0.0940    23.5860 c6         1 W7T      -0.071400
      6 C5          52.2990     2.1390    24.3990 c6         1 W7T      -0.071400
      7 C6          48.4680     2.6480    23.5860 c3         1 W7T      -0.151400
      8 C4          50.9020     2.8260    24.4030 c6         1 W7T      -0.071400
      9 C3          49.7280     1.8580    24.0550 c6         1 W7T      -0.056700
     10 C2          50.1890     0.7890    23.0270 c6         1 W7T      -0.071400
     11 O           46.6180     1.3010    24.3760 o          1 W7T      -0.615100
     12 N           46.8220     1.5660    22.1170 ns         1 W7T      -0.496900
     13 C           52.1990     0.6210    24.6700 c6         1 W7T      -0.074400
     14 H1          43.1680     3.2050    22.0060 hn         1 W7T       0.398000
     15 H2          43.7180     2.2020    23.1480 hn         1 W7T       0.398000
     16 H4          45.2730     0.1910    22.5330 h1         1 W7T       0.057200
     17 H5          45.8760     0.1770    20.8700 h1         1 W7T       0.057200
     18 H6          43.5870     1.1460    20.9930 h1         1 W7T       0.029200
     19 H7          44.7580     2.3360    20.3820 h1         1 W7T       0.029200
     20 H9          51.9870    -0.4080    22.7530 hc         1 W7T       0.037700
     21 H10         52.9520     2.6160    25.1420 hc         1 W7T       0.037700
     22 H11         52.7800     2.2960    23.4230 hc         1 W7T       0.037700
     23 H12         48.6930     3.1490    22.6360 hc         1 W7T       0.057200
     24 H13         48.2330     3.4110    24.3370 hc         1 W7T       0.057200
     25 H14         50.9250     3.6670    23.6960 hc         1 W7T       0.037450
     26 H15         50.7150     3.2700    25.3910 hc         1 W7T       0.037450
     27 H16         49.4330     1.3350    24.9770 hc         1 W7T       0.070700
     28 H17         50.5250     1.2920    22.1090 hc         1 W7T       0.037450
     29 H18         49.3530     0.1410    22.7320 hc         1 W7T       0.037450
     30 H19         47.3790     2.0100    21.3980 hn         1 W7T       0.306500
     31 H20         51.7520     0.4600    25.6610 hc         1 W7T       0.040200
     32 H21         53.2020     0.1750    24.7090 hc         1 W7T       0.040200
     33 H8          50.9300    -1.0180    24.0130 hc         1 W7T       0.037700
@<TRIPOS>BOND
     1     1     4 1   
     2     1    14 1   
     3     1    15 1   
     4     2     7 1   
     5     2    11 2   
     6     2    12 1   
     7     3     4 1   
     8     3    12 1   
     9     3    16 1   
    10     3    17 1   
    11     4    18 1   
    12     4    19 1   
    13     5    10 1   
    14     5    13 1   
    15     5    20 1   
    16     5    33 1   
    17     6     8 1   
    18     6    13 1   
    19     6    21 1   
    20     6    22 1   
    21     7     9 1   
    22     7    23 1   
    23     7    24 1   
    24     8     9 1   
    25     8    25 1   
    26     8    26 1   
    27     9    10 1   
    28     9    27 1   
    29    10    28 1   
    30    10    29 1   
    31    12    30 1   
    32    13    31 1   
    33    13    32 1   
@<TRIPOS>SUBSTRUCTURE
     1 W7T         1 TEMP              0 ****  ****    0 ROOT
