@<TRIPOS>MOLECULE
W7U
   29    30     1     0     0
SMALL
abcg2


@<TRIPOS>ATOM
      1 C1           5.4500     4.8120    17.3330 c5         1 W7U       0.389500
      2 N2           6.3030     6.0000    17.2050 nh         1 W7U      -0.442700
      3 C3           4.0440     5.4200    17.3900 c5         1 W7U      -0.172700
      4 O4           5.6670     3.9510    16.2290 oh         1 W7U      -0.638000
      5 N5           5.6040     7.1170    17.6630 n2         1 W7U      -0.400400
      6 C6           7.6410     5.8910    17.7620 c3         1 W7U       0.181100
      7 C7           4.3560     6.8430    17.7540 c2         1 W7U       0.313300
      8 C8           3.3770     7.8520    18.2160 c3         1 W7U       0.057300
      9 S9           2.7340     7.4310    19.9050 ss         1 W7U      -0.231000
     10 C10          4.2780     7.2260    20.7660 ca         1 W7U      -0.109000
     11 C11          4.7350     5.9450    21.0730 ca         1 W7U      -0.059000
     12 C12          5.0590     8.3320    21.1040 ca         1 W7U      -0.059000
     13 C13          5.9600     5.7640    21.7030 ca         1 W7U      -0.113500
     14 C14          6.2900     8.1630    21.7230 ca         1 W7U      -0.113500
     15 C15          6.7280     6.8770    22.0130 ca         1 W7U       0.142000
     16 CL16         8.2860     6.6570    22.7800 cl         1 W7U      -0.206000
     17 H1           5.6890     4.2750    18.2600 h2         1 W7U       0.022700
     18 H2           3.5750     5.3720    16.4010 hc         1 W7U       0.081200
     19 H17          3.3860     4.9260    18.1020 hc         1 W7U       0.081200
     20 H18          5.7220     3.0440    16.5520 ho         1 W7U       0.448000
     21 H19          8.2060     6.7920    17.5310 h1         1 W7U       0.044033
     22 H21          7.6240     5.7460    18.8510 h1         1 W7U       0.044033
     23 H20          8.1380     5.0380    17.3000 h1         1 W7U       0.044033
     24 H22          3.8250     8.8430    18.2440 h1         1 W7U       0.088200
     25 H23          2.4810     7.8730    17.5940 h1         1 W7U       0.088200
     26 H24          4.1400     5.0830    20.8020 ha         1 W7U       0.128000
     27 H25          4.7110     9.3290    20.8710 ha         1 W7U       0.128000
     28 H26          6.3180     4.7700    21.9340 ha         1 W7U       0.132000
     29 H27          6.8990     9.0190    21.9760 ha         1 W7U       0.132000
@<TRIPOS>BOND
     1     1     2 1   
     2     1     3 1   
     3     1     4 1   
     4     1    17 1   
     5     2     5 1   
     6     2     6 1   
     7     3     7 1   
     8     3    18 1   
     9     3    19 1   
    10     4    20 1   
    11     5     7 2   
    12     6    21 1   
    13     6    22 1   
    14     6    23 1   
    15     7     8 1   
    16     8     9 1   
    17     8    24 1   
    18     8    25 1   
    19     9    10 1   
    20    10    11 ar  
    21    10    12 ar  
    22    11    13 ar  
    23    11    26 1   
    24    12    14 ar  
    25    12    27 1   
    26    13    15 ar  
    27    13    28 1   
    28    14    15 ar  
    29    14    29 1   
    30    15    16 1   
@<TRIPOS>SUBSTRUCTURE
     1 W7U         1 TEMP              0 ****  ****    0 ROOT
