@<TRIPOS>MOLECULE
W7U
   29    30     1     0     0
SMALL
No Charge or Current Charge


@<TRIPOS>ATOM
      1 C1           5.6860     4.8860    17.1390 c5         1 W7U       0.389500
      2 N2           6.3750     6.1940    16.9970 nh         1 W7U      -0.442700
      3 C3           4.2820     5.3130    17.6060 c5         1 W7U      -0.172700
      4 O4           5.6490     4.1960    15.9030 oh         1 W7U      -0.638000
      5 N5           5.6020     7.2570    17.3720 n2         1 W7U      -0.400400
      6 C6           7.8460     6.2900    17.0680 c3         1 W7U       0.181100
      7 C7           4.4610     6.7980    17.7390 c2         1 W7U       0.313300
      8 C8           3.3380     7.6940    18.2290 c3         1 W7U       0.057300
      9 S9           2.7240     7.1480    19.8950 ss         1 W7U      -0.231000
     10 C10          4.2010     7.0320    20.9030 ca         1 W7U      -0.109000
     11 C11          4.2940     5.9980    21.8530 ca         1 W7U      -0.059000
     12 C12          5.2610     7.9510    20.7650 ca         1 W7U      -0.059000
     13 C13          5.4450     5.8730    22.6510 ca         1 W7U      -0.113500
     14 C14          6.4110     7.8240    21.5640 ca         1 W7U      -0.113500
     15 C15          6.5030     6.7840    22.5030 ca         1 W7U       0.142000
     16 Cl16         7.9440     6.6260    23.4990 cl         1 W7U      -0.206000
     17 H1           6.1790     4.2700    17.9020 h2         1 W7U       0.022700
     18 H2           3.4970     5.0770    16.8790 hc         1 W7U       0.081200
     19 H17          4.0190     4.8470    18.5600 hc         1 W7U       0.081200
     20 H18          5.2120     3.3390    16.0900 ho         1 W7U       0.448000
     21 H19          8.1920     7.2270    16.6140 h1         1 W7U       0.044033
     22 H21          8.1800     6.2620    18.1140 h1         1 W7U       0.044033
     23 H20          8.3110     5.4530    16.5310 h1         1 W7U       0.044033
     24 H22          3.6860     8.7320    18.2940 h1         1 W7U       0.088200
     25 H23          2.5050     7.6630    17.5160 h1         1 W7U       0.088200
     26 H24          3.4770     5.2890    21.9680 ha         1 W7U       0.128000
     27 H25          5.2000     8.7660    20.0490 ha         1 W7U       0.128000
     28 H26          5.5170     5.0710    23.3810 ha         1 W7U       0.132000
     29 H27          7.2300     8.5300    21.4550 ha         1 W7U       0.132000
@<TRIPOS>BOND
     1     1     2 1   
     2     1     3 1   
     3     1     4 1   
     4     1    17 1   
     5     2     5 1   
     6     2     6 1   
     7     3     7 1   
     8     3    18 1   
     9     3    19 1   
    10     4    20 1   
    11     5     7 2   
    12     6    21 1   
    13     6    22 1   
    14     6    23 1   
    15     7     8 1   
    16     8     9 1   
    17     8    24 1   
    18     8    25 1   
    19     9    10 1   
    20    10    11 ar  
    21    10    12 ar  
    22    11    13 ar  
    23    11    26 1   
    24    12    14 ar  
    25    12    27 1   
    26    13    15 ar  
    27    13    28 1   
    28    14    15 ar  
    29    14    29 1   
    30    15    16 1   
@<TRIPOS>SUBSTRUCTURE
     1 W7U         1 TEMP              0 ****  ****    0 ROOT
