@<TRIPOS>MOLECULE
W7V
   30    32     1     0     0
SMALL
No Charge or Current Charge


@<TRIPOS>ATOM
      1 C10        -52.5960     1.6120    -3.7730 c5         1 W7V      -0.039400
      2 C15        -53.6280    -1.0370    -1.8060 cc         1 W7V      -0.170000
      3 C01        -50.4800    -2.3530    -3.2640 c3         1 W7V       0.094300
      4 C03        -50.7570     0.0360    -2.6650 c          1 W7V       0.648100
      5 C05        -51.6380     1.2920    -2.6000 cx         1 W7V      -0.204000
      6 C06        -51.0280     2.5320    -1.9490 cx         1 W7V      -0.090400
      7 C07        -52.2210     1.8420    -1.3250 cx         1 W7V      -0.111700
      8 C08        -53.5970     2.4530    -1.6570 c5         1 W7V      -0.052400
      9 C09        -53.5780     2.6890    -3.2040 c5         1 W7V      -0.082400
     10 C11        -52.7450    -1.4940    -2.7410 cd         1 W7V      -0.078400
     11 C12        -53.4440    -2.3920    -3.5860 cd         1 W7V       0.245900
     12 N02        -51.3720    -1.2400    -2.8570 n          1 W7V      -0.298000
     13 N13        -54.7200    -2.4980    -3.2610 nc         1 W7V      -0.516800
     14 N14        -54.8270    -1.6550    -2.1620 na         1 W7V      -0.001200
     15 O04        -49.5340     0.1450    -2.6380 o          1 W7V      -0.590100
     16 H102       -53.1530     0.7290    -4.1010 hc         1 W7V       0.054200
     17 H101       -52.0600     1.9790    -4.6560 hc         1 W7V       0.054200
     18 H012       -51.0040    -3.3150    -3.1990 h1         1 W7V       0.043367
     19 H013       -50.1440    -2.1970    -4.2970 h1         1 W7V       0.043367
     20 H011       -49.6060    -2.4000    -2.6020 h1         1 W7V       0.043367
     21 H061       -50.0790     2.4300    -1.4270 hc         1 W7V       0.080700
     22 H062       -51.1580     3.5030    -2.4200 hc         1 W7V       0.080700
     23 H071       -52.0600     1.3160    -0.3870 hc         1 W7V       0.080700
     24 H082       -53.7800     3.3840    -1.1080 hc         1 W7V       0.047700
     25 H081       -54.4050     1.7670    -1.3830 hc         1 W7V       0.047700
     26 H091       -53.2240     3.6990    -3.4380 hc         1 W7V       0.045200
     27 H092       -54.5780     2.6070    -3.6450 hc         1 W7V       0.045200
     28 H121       -53.0620    -2.9580    -4.4270 h4         1 W7V       0.045100
     29 H141       -55.7180    -1.5400    -1.6780 hn         1 W7V       0.375000
     30 H151       -53.5230    -0.3990    -0.9410 h4         1 W7V       0.161000
@<TRIPOS>BOND
     1     1     5 1   
     2     1     9 1   
     3     1    16 1   
     4     1    17 1   
     5     2    10 2   
     6     2    14 1   
     7     2    30 1   
     8     3    12 1   
     9     3    18 1   
    10     3    19 1   
    11     3    20 1   
    12     4     5 1   
    13     4    12 1   
    14     4    15 2   
    15     5     6 1   
    16     5     7 1   
    17     6     7 1   
    18     6    21 1   
    19     6    22 1   
    20     7     8 1   
    21     7    23 1   
    22     8     9 1   
    23     8    24 1   
    24     8    25 1   
    25     9    26 1   
    26     9    27 1   
    27    10    11 1   
    28    10    12 1   
    29    11    13 2   
    30    11    28 1   
    31    13    14 1   
    32    14    29 1   
@<TRIPOS>SUBSTRUCTURE
     1 W7V         1 TEMP              0 ****  ****    0 ROOT
