@<TRIPOS>MOLECULE
W7V
   30    32     1     0     0
SMALL
abcg2


@<TRIPOS>ATOM
      1 C10        -52.4470     1.6500    -3.9680 c5         1 W7V      -0.039400
      2 C15        -53.3140    -1.4260    -1.4200 cc         1 W7V      -0.170000
      3 C01        -50.5090    -2.3200    -3.0940 c3         1 W7V       0.094300
      4 C03        -50.7250     0.0800    -2.8260 c          1 W7V       0.648100
      5 C05        -51.6040     1.2900    -2.7500 cx         1 W7V      -0.204000
      6 C06        -51.1510     2.4540    -1.9240 cx         1 W7V      -0.090400
      7 C07        -52.3760     1.6890    -1.5220 cx         1 W7V      -0.111700
      8 C08        -53.7270     2.2030    -1.9660 c5         1 W7V      -0.052400
      9 C09        -53.5200     2.6090    -3.4300 c5         1 W7V      -0.082400
     10 C11        -52.7000    -1.3380    -2.6510 cd         1 W7V      -0.078400
     11 C12        -53.7300    -1.5860    -3.5770 cd         1 W7V       0.245900
     12 N02        -51.3340    -1.1330    -2.9160 n          1 W7V      -0.298000
     13 N13        -54.8790    -1.7940    -2.9660 nc         1 W7V      -0.516800
     14 N14        -54.6030    -1.6890    -1.6700 na         1 W7V      -0.001200
     15 O04        -49.5060     0.1710    -2.8540 o          1 W7V      -0.590100
     16 H102       -52.9150     0.7550    -4.3790 hc         1 W7V       0.054200
     17 H101       -51.8500     2.1000    -4.7640 hc         1 W7V       0.054200
     18 H012       -51.1320    -3.1250    -3.4750 h1         1 W7V       0.043367
     19 H013       -49.7140    -2.1320    -3.8120 h1         1 W7V       0.043367
     20 H011       -50.0600    -2.6470    -2.1540 h1         1 W7V       0.043367
     21 H061       -50.2680     2.3130    -1.3130 hc         1 W7V       0.080700
     22 H062       -51.2420     3.4550    -2.3300 hc         1 W7V       0.080700
     23 H071       -52.3170     1.0930    -0.6190 hc         1 W7V       0.080700
     24 H082       -54.0980     3.0260    -1.3530 hc         1 W7V       0.047700
     25 H081       -54.4530     1.3880    -1.8940 hc         1 W7V       0.047700
     26 H091       -53.1710     3.6410    -3.4920 hc         1 W7V       0.045200
     27 H092       -54.4410     2.5580    -4.0120 hc         1 W7V       0.045200
     28 H121       -53.6610    -1.6200    -4.6540 h4         1 W7V       0.045100
     29 H141       -55.3370    -1.8090    -0.9910 hn         1 W7V       0.375000
     30 H151       -52.9310    -1.3210    -0.4190 h4         1 W7V       0.161000
@<TRIPOS>BOND
     1     1     5 1   
     2     1     9 1   
     3     1    16 1   
     4     1    17 1   
     5     2    10 2   
     6     2    14 1   
     7     2    30 1   
     8     3    12 1   
     9     3    18 1   
    10     3    19 1   
    11     3    20 1   
    12     4     5 1   
    13     4    12 1   
    14     4    15 2   
    15     5     6 1   
    16     5     7 1   
    17     6     7 1   
    18     6    21 1   
    19     6    22 1   
    20     7     8 1   
    21     7    23 1   
    22     8     9 1   
    23     8    24 1   
    24     8    25 1   
    25     9    26 1   
    26     9    27 1   
    27    10    11 1   
    28    10    12 1   
    29    11    13 2   
    30    11    28 1   
    31    13    14 1   
    32    14    29 1   
@<TRIPOS>SUBSTRUCTURE
     1 W7V         1 TEMP              0 ****  ****    0 ROOT
