@<TRIPOS>MOLECULE
W7W
   65    68     1     0     0
SMALL
No Charge or Current Charge


@<TRIPOS>ATOM
      1 C4          50.5530   -24.9010    -5.3870 cx         1 W7W      -0.454700
      2 C5          51.2990   -23.5920    -5.5680 cx         1 W7W      -0.058900
      3 C6          49.9740   -23.8110    -6.2700 cx         1 W7W      -0.058900
      4 C8          51.8600   -25.0080    -1.9540 cc         1 W7W      -0.067000
      5 C12         53.8550   -25.4040    -0.4470 ca         1 W7W       0.260500
      6 N13         54.7620   -26.3300    -0.0680 nb         1 W7W      -0.206000
      7 C15         55.7190   -24.6240     1.3230 ca         1 W7W      -0.283000
      8 C16         54.7280   -23.7440     0.8780 ca         1 W7W       0.399900
      9 C18         53.8770   -21.3700     1.1770 ca         1 W7W       0.650900
     10 C19         52.5580   -21.4240     0.7590 ca         1 W7W      -0.293000
     11 C24         48.4810   -20.8380    -0.9760 c3         1 W7W      -0.105100
     12 C27         52.4820   -19.0280     0.9970 ca         1 W7W      -0.343600
     13 C30         51.7870   -17.7010     0.9250 c          1 W7W       0.637700
     14 C33         52.0520   -15.2080     1.1630 c3         1 W7W       0.112000
     15 C34         51.3430   -14.8670     2.4930 c3         1 W7W      -0.163400
     16 C35         52.2670   -14.8740     3.7310 c3         1 W7W       0.166300
     17 C10         52.6260   -27.1110    -1.9360 cd         1 W7W       0.319900
     18 C14         55.6970   -25.9340     0.8180 ca         1 W7W       0.140900
     19 C20         51.8530   -20.2320     0.6540 ca         1 W7W       0.452000
     20 C22         49.9980   -21.0830    -0.8690 c3         1 W7W       0.245500
     21 C25         50.7580   -20.8320    -2.2000 c3         1 W7W      -0.099400
     22 C26         50.7110   -19.3830    -2.7420 c3         1 W7W      -0.087100
     23 C28         53.8110   -19.1060     1.4360 ca         1 W7W       0.440900
     24 C9          52.8200   -25.8160    -1.4040 cd         1 W7W      -0.254500
     25 F36         52.6420   -16.1360     4.0400 f          1 W7W      -0.128500
     26 F37         51.5950   -14.3870     4.7990 f          1 W7W      -0.128500
     27 N11         51.6100   -27.1730    -2.7760 nc         1 W7W      -0.498800
     28 N17         54.7100   -22.4350     1.3290 nu         1 W7W      -0.903800
     29 N21         50.5400   -20.2570     0.2160 nu         1 W7W      -0.958200
     30 N29         54.5010   -20.2580     1.5260 nb         1 W7W      -0.784000
     31 N32         52.5630   -16.5810     1.1220 ns         1 W7W      -0.500900
     32 N38         53.8020   -24.1290    -0.0120 nb         1 W7W      -0.253000
     33 N7          51.1270   -25.8580    -2.7830 na         1 W7W      -0.010400
     34 O1          48.9020   -26.5130    -4.0170 o          1 W7W      -0.519500
     35 O3          49.2320   -24.1020    -3.1810 o          1 W7W      -0.519500
     36 O31         50.5860   -17.5970     0.7130 o          1 W7W      -0.650100
     37 S2          49.7630   -25.3470    -3.7590 s6         1 W7W       1.304200
     38 H1          50.9540   -25.8070    -5.8350 h1         1 W7W       0.149700
     39 H2          52.2000   -23.5980    -6.1780 hc         1 W7W       0.090200
     40 H3          51.3220   -22.8840    -4.7420 hc         1 W7W       0.090200
     41 H4          49.1160   -23.2470    -5.9100 hc         1 W7W       0.090200
     42 H5          49.9930   -23.9610    -7.3470 hc         1 W7W       0.090200
     43 H6          51.6430   -23.9520    -1.8330 h4         1 W7W       0.183000
     44 H7          56.4760   -24.3140     2.0360 ha         1 W7W       0.136000
     45 H8          52.0790   -22.3640     0.5340 ha         1 W7W       0.155000
     46 H10         48.2570   -19.7840    -1.1740 hc         1 W7W       0.051033
     47 H11         48.0530   -21.4410    -1.7850 hc         1 W7W       0.051033
     48 H12         52.8900   -14.5150     1.0060 h1         1 W7W       0.061700
     49 H13         51.3480   -15.0690     0.3310 h1         1 W7W       0.061700
     50 H14         50.9060   -13.8660     2.3950 hc         1 W7W       0.083200
     51 H15         50.5070   -15.5570     2.6550 hc         1 W7W       0.083200
     52 H16         53.1580   -14.2600     3.5580 h2         1 W7W       0.055700
     53 H17         53.1970   -28.0080    -1.7320 h4         1 W7W       0.057100
     54 H18         56.4340   -26.6750     1.1250 h4         1 W7W       0.026100
     55 H19         50.1290   -22.1440    -0.6130 h1         1 W7W       0.056700
     56 H20         50.3430   -21.4990    -2.9640 hc         1 W7W       0.046200
     57 H21         51.8060   -21.1270    -2.0760 hc         1 W7W       0.046200
     58 H22         51.2820   -19.3120    -3.6750 hc         1 W7W       0.034700
     59 H23         49.6810   -19.0720    -2.9550 hc         1 W7W       0.034700
     60 H24         51.1470   -18.6780    -2.0260 hc         1 W7W       0.034700
     61 H25         54.3670   -18.2200     1.7380 h4         1 W7W       0.016100
     62 H26         55.5540   -22.1390     1.8050 hn         1 W7W       0.515000
     63 H27         50.1330   -19.3160     0.2830 hn         1 W7W       0.530000
     64 H28         53.5530   -16.7220     1.2720 hn         1 W7W       0.320500
     65 H9          47.9810   -21.1240    -0.0420 hc         1 W7W       0.051033
@<TRIPOS>BOND
     1     1     2 1   
     2     1     3 1   
     3     1    37 1   
     4     1    38 1   
     5     2     3 1   
     6     2    39 1   
     7     2    40 1   
     8     3    41 1   
     9     3    42 1   
    10     4    24 2   
    11     4    33 1   
    12     4    43 1   
    13     5     6 ar  
    14     5    24 1   
    15     5    32 ar  
    16     6    18 ar  
    17     7     8 ar  
    18     7    18 ar  
    19     7    44 1   
    20     8    28 1   
    21     8    32 ar  
    22     9    10 ar  
    23     9    28 1   
    24     9    30 ar  
    25    10    19 ar  
    26    10    45 1   
    27    11    20 1   
    28    11    46 1   
    29    11    47 1   
    30    11    65 1   
    31    12    13 1   
    32    12    19 ar  
    33    12    23 ar  
    34    13    31 1   
    35    13    36 2   
    36    14    15 1   
    37    14    31 1   
    38    14    48 1   
    39    14    49 1   
    40    15    16 1   
    41    15    50 1   
    42    15    51 1   
    43    16    25 1   
    44    16    26 1   
    45    16    52 1   
    46    17    24 1   
    47    17    27 2   
    48    17    53 1   
    49    18    54 1   
    50    19    29 1   
    51    20    21 1   
    52    20    29 1   
    53    20    55 1   
    54    21    22 1   
    55    21    56 1   
    56    21    57 1   
    57    22    58 1   
    58    22    59 1   
    59    22    60 1   
    60    23    30 ar  
    61    23    61 1   
    62    27    33 1   
    63    28    62 1   
    64    29    63 1   
    65    31    64 1   
    66    33    37 1   
    67    34    37 2   
    68    35    37 2   
@<TRIPOS>SUBSTRUCTURE
     1 W7W         1 TEMP              0 ****  ****    0 ROOT
