@<TRIPOS>MOLECULE
W7W
   65    68     1     0     0
SMALL
abcg2


@<TRIPOS>ATOM
      1 C4          50.1760   -25.2240    -5.1160 cx         1 W7W      -0.454700
      2 C5          51.0680   -24.0770    -5.5050 cx         1 W7W      -0.058900
      3 C6          49.6800   -24.1500    -6.0550 cx         1 W7W      -0.058900
      4 C8          51.6350   -24.8970    -1.7950 cc         1 W7W      -0.067000
      5 C12         53.7890   -25.2360    -0.4840 ca         1 W7W       0.260500
      6 N13         54.7360   -26.1380    -0.2250 nb         1 W7W      -0.206000
      7 C15         55.7780   -24.4690     1.1270 ca         1 W7W      -0.283000
      8 C16         54.7300   -23.5880     0.7870 ca         1 W7W       0.399900
      9 C18         53.8920   -21.2380     1.1930 ca         1 W7W       0.650900
     10 C19         52.7640   -21.2040     0.3910 ca         1 W7W      -0.293000
     11 C24         48.8800   -20.7030    -1.5650 c3         1 W7W      -0.105100
     12 C27         52.4220   -18.9200     1.1350 ca         1 W7W      -0.343600
     13 C30         51.6850   -17.6340     1.1430 c          1 W7W       0.637700
     14 C33         51.7670   -15.2260     1.6270 c3         1 W7W       0.112000
     15 C34         51.2210   -14.9980     3.0410 c3         1 W7W      -0.163400
     16 C35         52.2940   -14.8000     4.0760 c3         1 W7W       0.166300
     17 C10         52.4880   -26.9400    -1.9380 cd         1 W7W       0.319900
     18 C14         55.7270   -25.7290     0.5880 ca         1 W7W       0.140900
     19 C20         51.9770   -20.0350     0.3560 ca         1 W7W       0.452000
     20 C22         50.3640   -20.9580    -1.3200 c3         1 W7W       0.245500
     21 C25         51.1880   -20.9860    -2.6190 c3         1 W7W      -0.099400
     22 C26         51.1950   -19.6720    -3.3960 c3         1 W7W      -0.087100
     23 C28         53.5620   -19.0990     1.9100 ca         1 W7W       0.440900
     24 C9          52.6960   -25.6570    -1.3590 cd         1 W7W      -0.254500
     25 F36         53.0340   -15.9510     4.2600 f          1 W7W      -0.128500
     26 F37         51.7240   -14.5240     5.3020 f          1 W7W      -0.128500
     27 N11         51.3890   -26.9780    -2.6670 nc         1 W7W      -0.498800
     28 N17         54.7520   -22.3260     1.3100 nu         1 W7W      -0.903800
     29 N21         50.8540   -19.9570    -0.3810 nu         1 W7W      -0.958200
     30 N29         54.2940   -20.2060     1.9630 nb         1 W7W      -0.784000
     31 N32         52.3930   -16.5230     1.4380 ns         1 W7W      -0.500900
     32 N38         53.7420   -23.9790    -0.0190 nb         1 W7W      -0.253000
     33 N7          50.8660   -25.7220    -2.5580 na         1 W7W      -0.010400
     34 O1          48.5760   -26.3630    -3.3970 o          1 W7W      -0.519500
     35 O3          49.1700   -23.9670    -3.0390 o          1 W7W      -0.519500
     36 O31         50.4710   -17.5670     0.8810 o          1 W7W      -0.650100
     37 S2          49.5140   -25.2830    -3.5020 s6         1 W7W       1.304200
     38 H1          50.3770   -26.2170    -5.4930 h1         1 W7W       0.149700
     39 H2          51.9030   -24.3320    -6.1420 hc         1 W7W       0.090200
     40 H3          51.2680   -23.3240    -4.7550 hc         1 W7W       0.090200
     41 H4          48.9540   -23.4480    -5.6720 hc         1 W7W       0.090200
     42 H5          49.5330   -24.4630    -7.0790 hc         1 W7W       0.090200
     43 H6          51.3690   -23.8720    -1.6220 h4         1 W7W       0.183000
     44 H7          56.5820   -24.1610     1.7810 ha         1 W7W       0.136000
     45 H8          52.4980   -22.0720    -0.1830 ha         1 W7W       0.155000
     46 H10         48.7120   -19.6990    -1.9600 hc         1 W7W       0.051033
     47 H11         48.4930   -21.4240    -2.2840 hc         1 W7W       0.051033
     48 H12         52.5040   -14.4610     1.3790 h1         1 W7W       0.061700
     49 H13         50.9450   -15.1390     0.9200 h1         1 W7W       0.061700
     50 H14         50.6120   -14.0910     3.0370 hc         1 W7W       0.083200
     51 H15         50.5840   -15.8310     3.3450 hc         1 W7W       0.083200
     52 H16         52.9960   -13.9970     3.8480 h2         1 W7W       0.055700
     53 H17         53.1020   -27.8200    -1.8360 h4         1 W7W       0.057100
     54 H18         56.5030   -26.4540     0.8070 h4         1 W7W       0.026100
     55 H19         50.4550   -21.9390    -0.8450 h1         1 W7W       0.056700
     56 H20         50.7860   -21.7880    -3.2410 hc         1 W7W       0.046200
     57 H21         52.2150   -21.2670    -2.3750 hc         1 W7W       0.046200
     58 H22         51.8340   -19.7560    -4.2770 hc         1 W7W       0.034700
     59 H23         50.1960   -19.3960    -3.7360 hc         1 W7W       0.034700
     60 H24         51.5800   -18.8550    -2.7810 hc         1 W7W       0.034700
     61 H25         53.8990   -18.2970     2.5580 h4         1 W7W       0.016100
     62 H26         55.5270   -22.1290     1.9280 hn         1 W7W       0.515000
     63 H27         50.3350   -19.0950    -0.2790 hn         1 W7W       0.530000
     64 H28         53.3820   -16.5960     1.6040 hn         1 W7W       0.320500
     65 H9          48.3170   -20.8010    -0.6360 hc         1 W7W       0.051033
@<TRIPOS>BOND
     1     1     2 1   
     2     1     3 1   
     3     1    37 1   
     4     1    38 1   
     5     2     3 1   
     6     2    39 1   
     7     2    40 1   
     8     3    41 1   
     9     3    42 1   
    10     4    24 2   
    11     4    33 1   
    12     4    43 1   
    13     5     6 ar  
    14     5    24 1   
    15     5    32 ar  
    16     6    18 ar  
    17     7     8 ar  
    18     7    18 ar  
    19     7    44 1   
    20     8    28 1   
    21     8    32 ar  
    22     9    10 ar  
    23     9    28 1   
    24     9    30 ar  
    25    10    19 ar  
    26    10    45 1   
    27    11    20 1   
    28    11    46 1   
    29    11    47 1   
    30    11    65 1   
    31    12    13 1   
    32    12    19 ar  
    33    12    23 ar  
    34    13    31 1   
    35    13    36 2   
    36    14    15 1   
    37    14    31 1   
    38    14    48 1   
    39    14    49 1   
    40    15    16 1   
    41    15    50 1   
    42    15    51 1   
    43    16    25 1   
    44    16    26 1   
    45    16    52 1   
    46    17    24 1   
    47    17    27 2   
    48    17    53 1   
    49    18    54 1   
    50    19    29 1   
    51    20    21 1   
    52    20    29 1   
    53    20    55 1   
    54    21    22 1   
    55    21    56 1   
    56    21    57 1   
    57    22    58 1   
    58    22    59 1   
    59    22    60 1   
    60    23    30 ar  
    61    23    61 1   
    62    27    33 1   
    63    28    62 1   
    64    29    63 1   
    65    31    64 1   
    66    33    37 1   
    67    34    37 2   
    68    35    37 2   
@<TRIPOS>SUBSTRUCTURE
     1 W7W         1 TEMP              0 ****  ****    0 ROOT
