@<TRIPOS>MOLECULE
W7X
   31    32     1     0     0
SMALL
abcg2


@<TRIPOS>ATOM
      1 N1          -3.0860    14.4040   -32.8100 nh         1 W7X      -0.785300
      2 C7          -3.0030    16.5990   -34.0590 c3         1 W7X      -0.136400
      3 C8          -4.3480    16.1870   -34.6760 c3         1 W7X       0.164800
      4 N2          -5.4720    15.9710   -33.7600 n7         1 W7X      -0.873400
      5 C9          -5.5500    14.6370   -33.1700 c3         1 W7X       0.133800
      6 C1          -0.8410    12.8680   -35.0930 ca         1 W7X       0.399300
      7 C5          -2.5570    13.4480   -33.6370 ca         1 W7X       0.624900
      8 C6          -2.5670    15.7680   -32.8380 c3         1 W7X       0.232800
      9 C4          -3.1470    12.1700   -33.7870 ca         1 W7X      -0.235000
     10 C3          -2.5280    11.2530   -34.6080 ca         1 W7X      -0.034000
     11 C2          -1.3520    11.5900   -35.2780 ca         1 W7X      -0.222000
     12 N           -1.4310    13.7700   -34.2970 nb         1 W7X      -0.761000
     13 C10         -4.4100    14.2560   -32.2180 c3         1 W7X       0.183800
     14 H1          -2.2460    16.5330   -34.8450 hc         1 W7X       0.051200
     15 H2          -3.0500    17.6480   -33.7520 hc         1 W7X       0.051200
     16 H3          -4.6290    16.9580   -35.4010 h1         1 W7X       0.052700
     17 H4          -4.2190    15.2630   -35.2440 h1         1 W7X       0.052700
     18 H5          -5.4870    16.6820   -33.0370 hn         1 W7X       0.411000
     19 H7          -6.4930    14.5500   -32.6240 h1         1 W7X       0.057700
     20 H8          -5.5880    13.9170   -33.9920 h1         1 W7X       0.057700
     21 H9          -1.4810    15.7380   -32.7870 h1         1 W7X       0.055200
     22 H10         -2.9270    16.2430   -31.9260 h1         1 W7X       0.055200
     23 H11         -4.0640    11.9100   -33.2820 ha         1 W7X       0.119000
     24 H12         -2.9650    10.2690   -34.7340 ha         1 W7X       0.113000
     25 H13         -0.8550    10.8860   -35.9320 ha         1 W7X       0.121000
     26 H14          0.2000    14.1840   -36.4270 hc         1 W7X       0.049033
     27 H15          1.1640    13.6290   -35.0650 hc         1 W7X       0.049033
     28 H16          0.8280    12.5260   -36.4120 hc         1 W7X       0.049033
     29 H17         -4.5520    13.2380   -31.8550 h1         1 W7X       0.054200
     30 H18         -4.4420    14.9070   -31.3420 h1         1 W7X       0.054200
     31 C            0.4110    13.3190   -35.7930 c3         1 W7X      -0.143400
@<TRIPOS>BOND
     1     1     7 1   
     2     1     8 1   
     3     1    13 1   
     4     2     3 1   
     5     2     8 1   
     6     2    14 1   
     7     2    15 1   
     8     3     4 1   
     9     3    16 1   
    10     3    17 1   
    11     4     5 1   
    12     4    18 1   
    13     5    13 1   
    14     5    19 1   
    15     5    20 1   
    16     6    11 ar  
    17     6    12 ar  
    18     6    31 1   
    19     7     9 ar  
    20     7    12 ar  
    21     8    21 1   
    22     8    22 1   
    23     9    10 ar  
    24     9    23 1   
    25    10    11 ar  
    26    10    24 1   
    27    11    25 1   
    28    13    29 1   
    29    13    30 1   
    30    26    31 1   
    31    27    31 1   
    32    28    31 1   
@<TRIPOS>SUBSTRUCTURE
     1 W7X         1 TEMP              0 ****  ****    0 ROOT
