@<TRIPOS>MOLECULE
W7X
   31    32     1     0     0
SMALL
No Charge or Current Charge


@<TRIPOS>ATOM
      1 N1          -3.0360    14.4510   -32.9380 nh         1 W7X      -0.785300
      2 C7          -3.2360    16.6120   -34.2520 c3         1 W7X      -0.136400
      3 C8          -4.6870    16.2280   -34.6340 c3         1 W7X       0.164800
      4 N2          -5.5700    16.0430   -33.4590 n7         1 W7X      -0.873400
      5 C9          -5.6020    14.6650   -32.8750 c3         1 W7X       0.133800
      6 C1          -0.6590    12.7700   -35.0050 ca         1 W7X       0.399300
      7 C5          -2.4960    13.4470   -33.7710 ca         1 W7X       0.624900
      8 C6          -2.6170    15.8660   -33.0490 c3         1 W7X       0.232800
      9 C4          -3.2060    12.2820   -34.1270 ca         1 W7X      -0.235000
     10 C3          -2.6020    11.3310   -34.9600 ca         1 W7X      -0.034000
     11 C2          -1.3000    11.5870   -35.4060 ca         1 W7X      -0.222000
     12 N           -1.2440    13.6830   -34.2050 nb         1 W7X      -0.761000
     13 C10         -4.2820    14.2410   -32.1540 c3         1 W7X       0.183800
     14 H1          -2.6030    16.4410   -35.1300 hc         1 W7X       0.051200
     15 H2          -3.1890    17.6880   -34.0480 hc         1 W7X       0.051200
     16 H3          -5.0830    17.0260   -35.2790 h1         1 W7X       0.052700
     17 H4          -4.6690    15.3140   -35.2440 h1         1 W7X       0.052700
     18 H5          -5.3100    16.7230   -32.7340 hn         1 W7X       0.411000
     19 H7          -6.4180    14.5880   -32.1440 h1         1 W7X       0.057700
     20 H8          -5.8170    13.9310   -33.6630 h1         1 W7X       0.057700
     21 H9          -1.5220    15.9580   -33.0860 h1         1 W7X       0.055200
     22 H10         -2.9170    16.3990   -32.1360 h1         1 W7X       0.055200
     23 H11         -4.2180    12.1120   -33.7770 ha         1 W7X       0.119000
     24 H12         -3.1290    10.4250   -35.2530 ha         1 W7X       0.113000
     25 H13         -0.7920    10.8790   -36.0550 ha         1 W7X       0.121000
     26 H14          0.7320    13.8390   -36.2710 hc         1 W7X       0.049033
     27 H15          1.3560    13.4940   -34.6470 hc         1 W7X       0.049033
     28 H16          1.2590    12.2010   -35.8500 hc         1 W7X       0.049033
     29 H17         -4.3670    13.1910   -31.8430 h1         1 W7X       0.054200
     30 H18         -4.2140    14.8120   -31.2180 h1         1 W7X       0.054200
     31 C            0.7490    13.0930   -35.4680 c3         1 W7X      -0.143400
@<TRIPOS>BOND
     1     1     7 1   
     2     1     8 1   
     3     1    13 1   
     4     2     3 1   
     5     2     8 1   
     6     2    14 1   
     7     2    15 1   
     8     3     4 1   
     9     3    16 1   
    10     3    17 1   
    11     4     5 1   
    12     4    18 1   
    13     5    13 1   
    14     5    19 1   
    15     5    20 1   
    16     6    11 ar  
    17     6    12 ar  
    18     6    31 1   
    19     7     9 ar  
    20     7    12 ar  
    21     8    21 1   
    22     8    22 1   
    23     9    10 ar  
    24     9    23 1   
    25    10    11 ar  
    26    10    24 1   
    27    11    25 1   
    28    13    29 1   
    29    13    30 1   
    30    26    31 1   
    31    27    31 1   
    32    28    31 1   
@<TRIPOS>SUBSTRUCTURE
     1 W7X         1 TEMP              0 ****  ****    0 ROOT
