@<TRIPOS>MOLECULE
W7Y
   36    39     1     0     0
SMALL
abcg2


@<TRIPOS>ATOM
      1 C10        -45.5020   -29.2960     3.9950 ca         1 W7Y       0.441900
      2 C17        -48.0410   -28.7300     4.5970 cc         1 W7Y      -0.203200
      3 C01        -43.0770   -32.8560     0.9880 cy         1 W7Y      -0.095400
      4 C02        -44.4780   -32.2250     1.0980 cy         1 W7Y      -0.085900
      5 C03        -43.8430   -31.1010     1.9430 cy         1 W7Y      -0.093700
      6 C04        -42.4810   -31.4770     1.3290 cy         1 W7Y      -0.085900
      7 C05        -44.3020   -29.6510     1.8740 c5         1 W7Y       0.262500
      8 C06        -44.7030   -29.1590     0.4830 c5         1 W7Y      -0.092400
      9 C07        -46.2090   -29.3910     0.4130 c5         1 W7Y      -0.093400
     10 C08        -46.6850   -29.1280     1.8370 c5         1 W7Y       0.226800
     11 C12        -44.2610   -29.3770     5.9360 ca         1 W7Y       0.180900
     12 C14        -46.4070   -28.9360     6.1660 ca         1 W7Y       0.145500
     13 C16        -48.5670   -28.5290     5.8380 cd         1 W7Y      -0.187100
     14 C18        -46.6440   -28.9970     4.7820 ca         1 W7Y      -0.253800
     15 N09        -45.5190   -29.4130     2.6580 nh         1 W7Y      -0.777300
     16 N11        -44.3260   -29.4730     4.6140 nb         1 W7Y      -0.312000
     17 N13        -45.2350   -29.1200     6.7820 nb         1 W7Y      -0.239000
     18 N15        -47.5780   -28.6550     6.7790 na         1 W7Y      -0.316400
     19 H171       -48.6000   -28.6830     3.6790 ha         1 W7Y       0.200000
     20 H012       -42.8960   -33.5810     1.7830 hc         1 W7Y       0.048200
     21 H021       -44.8120   -31.8710     0.1210 hc         1 W7Y       0.047200
     22 H022       -45.2790   -32.8140     1.5480 hc         1 W7Y       0.047200
     23 H031       -43.8410   -31.4070     2.9920 hc         1 W7Y       0.080700
     24 H042       -41.6050   -31.4360     1.9780 hc         1 W7Y       0.047200
     25 H041       -42.2690   -30.9030     0.4230 hc         1 W7Y       0.047200
     26 H051       -43.4930   -29.0380     2.2810 h1         1 W7Y       0.079700
     27 H062       -44.1580   -29.6680    -0.3130 hc         1 W7Y       0.054700
     28 H061       -44.4830   -28.0930     0.3930 hc         1 W7Y       0.054700
     29 H071       -46.7050   -28.7390    -0.3040 hc         1 W7Y       0.053700
     30 H072       -46.4330   -30.4190     0.1260 hc         1 W7Y       0.053700
     31 H081       -47.0000   -28.0870     1.9620 h1         1 W7Y       0.048700
     32 H082       -47.5280   -29.7660     2.1050 h1         1 W7Y       0.048700
     33 H121       -43.2760   -29.5310     6.3670 h5         1 W7Y       0.041100
     34 H161       -49.5790   -28.3040     6.1300 h4         1 W7Y       0.215000
     35 H151       -47.7000   -28.5580     7.7740 hn         1 W7Y       0.360000
     36 H011       -42.7990   -33.3080     0.0350 hc         1 W7Y       0.048200
@<TRIPOS>BOND
     1     1    14 ar  
     2     1    15 1   
     3     1    16 ar  
     4     2    13 2   
     5     2    14 1   
     6     2    19 1   
     7     3     4 1   
     8     3     6 1   
     9     3    20 1   
    10     3    36 1   
    11     4     5 1   
    12     4    21 1   
    13     4    22 1   
    14     5     6 1   
    15     5     7 1   
    16     5    23 1   
    17     6    24 1   
    18     6    25 1   
    19     7     8 1   
    20     7    15 1   
    21     7    26 1   
    22     8     9 1   
    23     8    27 1   
    24     8    28 1   
    25     9    10 1   
    26     9    29 1   
    27     9    30 1   
    28    10    15 1   
    29    10    31 1   
    30    10    32 1   
    31    11    16 ar  
    32    11    17 ar  
    33    11    33 1   
    34    12    14 ar  
    35    12    17 ar  
    36    12    18 1   
    37    13    18 1   
    38    13    34 1   
    39    18    35 1   
@<TRIPOS>SUBSTRUCTURE
     1 W7Y         1 TEMP              0 ****  ****    0 ROOT
