@<TRIPOS>MOLECULE
W7Y
   36    39     1     0     0
SMALL
No Charge or Current Charge


@<TRIPOS>ATOM
      1 C10        -45.5380   -29.3570     4.1280 ca         1 W7Y       0.441900
      2 C17        -48.0080   -28.6060     4.6430 cc         1 W7Y      -0.203200
      3 C01        -42.9770   -32.9090     1.0200 cy         1 W7Y      -0.095400
      4 C02        -44.3920   -32.2470     0.9840 cy         1 W7Y      -0.085900
      5 C03        -43.7470   -31.0820     1.8270 cy         1 W7Y      -0.093700
      6 C04        -42.4340   -31.4420     1.0410 cy         1 W7Y      -0.085900
      7 C05        -44.2860   -29.6060     1.9040 c5         1 W7Y       0.262500
      8 C06        -44.7280   -29.1340     0.4820 c5         1 W7Y      -0.092400
      9 C07        -46.2360   -29.4970     0.4340 c5         1 W7Y      -0.093400
     10 C08        -46.7110   -29.1300     1.8580 c5         1 W7Y       0.226800
     11 C12        -44.3160   -29.5510     6.0810 ca         1 W7Y       0.180900
     12 C14        -46.5010   -28.9290     6.3070 ca         1 W7Y       0.145500
     13 C16        -48.6310   -28.3440     5.8500 cd         1 W7Y      -0.187100
     14 C18        -46.6460   -28.9850     4.9370 ca         1 W7Y      -0.253800
     15 N09        -45.5400   -29.4590     2.7070 nh         1 W7Y      -0.777300
     16 N11        -44.3620   -29.6330     4.7350 nb         1 W7Y      -0.312000
     17 N13        -45.3310   -29.2130     6.9030 nb         1 W7Y      -0.239000
     18 N15        -47.6970   -28.5480     6.8900 na         1 W7Y      -0.316400
     19 H171       -48.4990   -28.5110     3.6790 ha         1 W7Y       0.200000
     20 H012       -42.7650   -33.4910     1.9250 hc         1 W7Y       0.048200
     21 H021       -44.7160   -31.9840    -0.0300 hc         1 W7Y       0.047200
     22 H022       -45.1970   -32.8040     1.4750 hc         1 W7Y       0.047200
     23 H031       -43.6410   -31.4070     2.8690 hc         1 W7Y       0.080700
     24 H042       -41.4960   -31.2890     1.5850 hc         1 W7Y       0.047200
     25 H041       -42.3360   -30.9790     0.0510 hc         1 W7Y       0.047200
     26 H051       -43.5040   -28.9280     2.2780 h1         1 W7Y       0.079700
     27 H062       -44.1550   -29.5780    -0.3380 hc         1 W7Y       0.054700
     28 H061       -44.6010   -28.0480     0.3950 hc         1 W7Y       0.054700
     29 H071       -46.7780   -28.9380    -0.3360 hc         1 W7Y       0.053700
     30 H072       -46.4090   -30.5580     0.2320 hc         1 W7Y       0.053700
     31 H081       -46.9570   -28.0610     1.9250 h1         1 W7Y       0.048700
     32 H082       -47.5980   -29.7220     2.1220 h1         1 W7Y       0.048700
     33 H121       -43.3620   -29.7800     6.5530 h5         1 W7Y       0.041100
     34 H161       -49.6550   -28.0280     6.0420 h4         1 W7Y       0.215000
     35 H151       -47.8610   -28.4330     7.8860 hn         1 W7Y       0.360000
     36 H011       -42.7050   -33.5100     0.1450 hc         1 W7Y       0.048200
@<TRIPOS>BOND
     1     1    14 ar  
     2     1    15 1   
     3     1    16 ar  
     4     2    13 2   
     5     2    14 1   
     6     2    19 1   
     7     3     4 1   
     8     3     6 1   
     9     3    20 1   
    10     3    36 1   
    11     4     5 1   
    12     4    21 1   
    13     4    22 1   
    14     5     6 1   
    15     5     7 1   
    16     5    23 1   
    17     6    24 1   
    18     6    25 1   
    19     7     8 1   
    20     7    15 1   
    21     7    26 1   
    22     8     9 1   
    23     8    27 1   
    24     8    28 1   
    25     9    10 1   
    26     9    29 1   
    27     9    30 1   
    28    10    15 1   
    29    10    31 1   
    30    10    32 1   
    31    11    16 ar  
    32    11    17 ar  
    33    11    33 1   
    34    12    14 ar  
    35    12    17 ar  
    36    12    18 1   
    37    13    18 1   
    38    13    34 1   
    39    18    35 1   
@<TRIPOS>SUBSTRUCTURE
     1 W7Y         1 TEMP              0 ****  ****    0 ROOT
