@<TRIPOS>MOLECULE
W7Z
   41    44     1     0     0
SMALL
No Charge or Current Charge


@<TRIPOS>ATOM
      1 C1         -21.7770    51.1150     0.7960 ca         1 W7Z       0.132100
      2 C2         -21.2230    49.8910     0.3560 ca         1 W7Z      -0.182000
      3 C3         -21.6100    49.3370    -0.8740 ca         1 W7Z      -0.069000
      4 C4         -22.5530    49.9990    -1.6720 ca         1 W7Z      -0.124000
      5 C5         -23.1090    51.2140    -1.2460 ca         1 W7Z       0.155000
      6 C6         -22.7280    51.7880    -0.0110 ca         1 W7Z      -0.084300
      7 C7         -23.3480    53.1180     0.4300 c3         1 W7Z      -0.039800
      8 O8         -21.4130    51.6760     2.0060 os         1 W7Z      -0.370100
      9 Cl9        -24.2950    52.0010    -2.2900 cl         1 W7Z      -0.203000
     10 C10        -24.0940    57.6210     7.9550 ca         1 W7Z      -0.123000
     11 C11        -23.5490    58.1630     9.1290 ca         1 W7Z      -0.095000
     12 C12        -22.3210    57.6840     9.6110 ca         1 W7Z      -0.123000
     13 C13        -21.6390    56.6660     8.9220 ca         1 W7Z      -0.072000
     14 C14        -22.1750    56.1080     7.7360 ca         1 W7Z      -0.134500
     15 C15        -23.4160    56.6030     7.2630 ca         1 W7Z      -0.072000
     16 C16        -21.4560    55.0400     7.0180 cc         1 W7Z       0.621500
     17 N17        -21.9810    54.5000     5.8650 nc         1 W7Z      -0.730000
     18 N18        -20.2850    54.5460     7.4290 nd         1 W7Z      -0.485800
     19 N19        -20.0190    53.5930     6.4540 n          1 W7Z      -0.073500
     20 C20        -21.0470    53.6430     5.6050 cd         1 W7Z       0.670400
     21 N21        -21.2140    52.8880     4.4970 na         1 W7Z      -0.748900
     22 C22        -20.2620    51.9340     4.1210 cc         1 W7Z       0.188800
     23 C23        -19.1890    51.8770     5.0050 cd         1 W7Z      -0.393200
     24 C24        -18.9860    52.6940     6.2270 c          1 W7Z       0.567000
     25 O25        -18.0090    52.5840     6.9550 o          1 W7Z      -0.466000
     26 C26        -20.4330    51.0730     2.8820 c3         1 W7Z       0.192800
     27 H1         -20.4920    49.3530     0.9520 ha         1 W7Z       0.121000
     28 H2         -21.1800    48.3940    -1.2080 ha         1 W7Z       0.123000
     29 H3         -22.8550    49.5690    -2.6240 ha         1 W7Z       0.137000
     30 H4         -22.9200    53.5080     1.3590 hc         1 W7Z       0.053367
     31 H5         -23.2000    53.8920    -0.3330 hc         1 W7Z       0.053367
     32 H6         -24.4270    53.0100     0.5900 hc         1 W7Z       0.053367
     33 H8         -24.0750    58.9510     9.6630 ha         1 W7Z       0.112000
     34 H9         -21.8960    58.1030    10.5210 ha         1 W7Z       0.115000
     35 H10        -20.6890    56.3140     9.3190 ha         1 W7Z       0.132000
     36 H11        -23.8630    56.2020     6.3560 ha         1 W7Z       0.132000
     37 H12        -22.0470    53.0480     3.9450 hn         1 W7Z       0.552000
     38 H13        -18.3820    51.1750     4.8310 ha         1 W7Z       0.225000
     39 H14        -20.7530    50.0710     3.1930 h1         1 W7Z       0.068700
     40 H15        -19.4630    50.9860     2.3750 h1         1 W7Z       0.068700
     41 H7         -25.0460    57.9910     7.5790 ha         1 W7Z       0.115000
@<TRIPOS>BOND
     1     1     2 ar  
     2     1     6 ar  
     3     1     8 1   
     4     2     3 ar  
     5     2    27 1   
     6     3     4 ar  
     7     3    28 1   
     8     4     5 ar  
     9     4    29 1   
    10     5     6 ar  
    11     5     9 1   
    12     6     7 1   
    13     7    30 1   
    14     7    31 1   
    15     7    32 1   
    16     8    26 1   
    17    10    11 ar  
    18    10    15 ar  
    19    10    41 1   
    20    11    12 ar  
    21    11    33 1   
    22    12    13 ar  
    23    12    34 1   
    24    13    14 ar  
    25    13    35 1   
    26    14    15 ar  
    27    14    16 1   
    28    15    36 1   
    29    16    17 1   
    30    16    18 2   
    31    17    20 2   
    32    18    19 1   
    33    19    20 1   
    34    19    24 1   
    35    20    21 1   
    36    21    22 1   
    37    21    37 1   
    38    22    23 2   
    39    22    26 1   
    40    23    24 1   
    41    23    38 1   
    42    24    25 2   
    43    26    39 1   
    44    26    40 1   
@<TRIPOS>SUBSTRUCTURE
     1 W7Z         1 TEMP              0 ****  ****    0 ROOT
