@<TRIPOS>MOLECULE
W7Z
   41    44     1     0     0
SMALL
abcg2


@<TRIPOS>ATOM
      1 C1         -21.6610    51.1240     0.7900 ca         1 W7Z       0.132100
      2 C2         -21.1790    49.8720     0.4300 ca         1 W7Z      -0.182000
      3 C3         -21.6220    49.2910    -0.7550 ca         1 W7Z      -0.069000
      4 C4         -22.5290    49.9490    -1.5680 ca         1 W7Z      -0.124000
      5 C5         -22.9910    51.2030    -1.1790 ca         1 W7Z       0.155000
      6 C6         -22.5850    51.8300    -0.0040 ca         1 W7Z      -0.084300
      7 C7         -23.0670    53.1740     0.4570 c3         1 W7Z      -0.039800
      8 O8         -21.2770    51.7800     1.9260 os         1 W7Z      -0.370100
      9 CL9        -24.1430    51.9950    -2.2450 cl         1 W7Z      -0.203000
     10 C10        -24.0990    57.6200     8.1270 ca         1 W7Z      -0.123000
     11 C11        -23.4480    58.1290     9.2460 ca         1 W7Z      -0.095000
     12 C12        -22.2010    57.6250     9.6110 ca         1 W7Z      -0.123000
     13 C13        -21.6090    56.6180     8.8630 ca         1 W7Z      -0.072000
     14 C14        -22.2590    56.1020     7.7360 ca         1 W7Z      -0.134500
     15 C15        -23.5100    56.6120     7.3750 ca         1 W7Z      -0.072000
     16 C16        -21.6400    55.0440     6.9360 cc         1 W7Z       0.621500
     17 N17        -22.2140    54.5510     5.7880 nc         1 W7Z      -0.730000
     18 N18        -20.4780    54.4890     7.2550 nd         1 W7Z      -0.485800
     19 N19        -20.2870    53.5850     6.2530 n          1 W7Z      -0.073500
     20 C20        -21.3440    53.6510     5.3930 cd         1 W7Z       0.670400
     21 N21        -21.3670    52.8400     4.3110 na         1 W7Z      -0.748900
     22 C22        -20.3270    51.9940     4.0710 cc         1 W7Z       0.188800
     23 C23        -19.2610    51.9320     4.9130 cd         1 W7Z      -0.393200
     24 C24        -19.1690    52.7320     6.1060 c          1 W7Z       0.567000
     25 O25        -18.2650    52.7340     6.9270 o          1 W7Z      -0.466000
     26 C26        -20.4560    51.1080     2.8670 c3         1 W7Z       0.192800
     27 H1         -20.4680    49.3480     1.0500 ha         1 W7Z       0.121000
     28 H2         -21.2520    48.3150    -1.0430 ha         1 W7Z       0.123000
     29 H3         -22.8770    49.5050    -2.4900 ha         1 W7Z       0.137000
     30 H4         -22.2280    53.8630     0.5750 hc         1 W7Z       0.053367
     31 H5         -23.7750    53.6050    -0.2450 hc         1 W7Z       0.053367
     32 H6         -23.5510    53.0920     1.4330 hc         1 W7Z       0.053367
     33 H8         -23.9070    58.9150     9.8320 ha         1 W7Z       0.112000
     34 H9         -21.6890    58.0190    10.4800 ha         1 W7Z       0.115000
     35 H10        -20.6400    56.2290     9.1450 ha         1 W7Z       0.132000
     36 H11        -24.0140    56.2160     6.5040 ha         1 W7Z       0.132000
     37 H12        -22.1330    52.9020     3.6530 hn         1 W7Z       0.552000
     38 H13        -18.4420    51.2620     4.6990 ha         1 W7Z       0.225000
     39 H14        -20.9200    50.1610     3.1660 h1         1 W7Z       0.068700
     40 H15        -19.4660    50.8980     2.4580 h1         1 W7Z       0.068700
     41 H7         -25.0680    58.0080     7.8400 ha         1 W7Z       0.115000
@<TRIPOS>BOND
     1     1     2 ar  
     2     1     6 ar  
     3     1     8 1   
     4     2     3 ar  
     5     2    27 1   
     6     3     4 ar  
     7     3    28 1   
     8     4     5 ar  
     9     4    29 1   
    10     5     6 ar  
    11     5     9 1   
    12     6     7 1   
    13     7    30 1   
    14     7    31 1   
    15     7    32 1   
    16     8    26 1   
    17    10    11 ar  
    18    10    15 ar  
    19    10    41 1   
    20    11    12 ar  
    21    11    33 1   
    22    12    13 ar  
    23    12    34 1   
    24    13    14 ar  
    25    13    35 1   
    26    14    15 ar  
    27    14    16 1   
    28    15    36 1   
    29    16    17 1   
    30    16    18 2   
    31    17    20 2   
    32    18    19 1   
    33    19    20 1   
    34    19    24 1   
    35    20    21 1   
    36    21    22 1   
    37    21    37 1   
    38    22    23 2   
    39    22    26 1   
    40    23    24 1   
    41    23    38 1   
    42    24    25 2   
    43    26    39 1   
    44    26    40 1   
@<TRIPOS>SUBSTRUCTURE
     1 W7Z         1 TEMP              0 ****  ****    0 ROOT
