@<TRIPOS>MOLECULE
W80
   49    51     1     0     0
SMALL
No Charge or Current Charge


@<TRIPOS>ATOM
      1 N02          7.3130    -0.6080     1.1860 nv         1 W80      -1.056900
      2 C02          6.3460     0.1690     0.6960 ca         1 W80       0.601900
      3 C03          6.5790     1.4020     0.0840 ca         1 W80      -0.231000
      4 C04          5.4780     2.1330    -0.3850 ca         1 W80       0.001700
      5 C05          4.2050     1.5700    -0.1980 ca         1 W80      -0.216000
      6 C07          5.6530     3.4820    -1.0620 c3         1 W80      -0.053800
      7 N01          5.1540    -0.3780     0.8840 nb         1 W80      -0.754000
      8 C06          4.0850     0.3200     0.4390 ca         1 W80       0.396300
      9 C08          2.7200    -0.3170     0.6480 c3         1 W80      -0.124700
     10 C09          2.2140    -1.0530    -0.6110 c3         1 W80      -0.024100
     11 C13          0.8400    -1.6760    -0.3990 ca         1 W80      -0.129300
     12 C12          0.7030    -3.0580    -0.1610 ca         1 W80       0.338900
     13 N11         -0.4920    -3.6610     0.0310 nb         1 W80      -0.665000
     14 C16         -1.6020    -2.8860    -0.0080 ca         1 W80       0.340900
     15 C14         -0.3200    -0.8820    -0.4360 ca         1 W80      -0.067000
     16 C15         -1.5870    -1.4840    -0.2370 cp         1 W80      -0.083000
     17 C21         -2.8510    -0.6810    -0.2650 cp         1 W80      -0.031000
     18 C26         -2.8770     0.6640     0.1810 ca         1 W80      -0.102000
     19 C22         -4.0660    -1.2420    -0.7360 ca         1 W80      -0.102000
     20 C23         -5.2530    -0.4890    -0.7630 ca         1 W80      -0.098000
     21 C24         -5.2600     0.8460    -0.3170 ca         1 W80      -0.085300
     22 C25         -4.0640     1.4170     0.1560 ca         1 W80      -0.098000
     23 C27         -6.5440     1.6640    -0.3490 c3         1 W80       0.203100
     24 N28         -7.2190     1.6210     0.9610 n7         1 W80      -0.861400
     25 C29         -8.4990     2.3520     1.0300 c3         1 W80       0.145100
     26 H1           6.9910    -1.3420     1.8040 hn         1 W80       0.469000
     27 H2           8.1950    -0.1680     1.4240 hn         1 W80       0.469000
     28 H3           7.5910     1.7800    -0.0260 ha         1 W80       0.119000
     29 H4           3.3150     2.0920    -0.5400 ha         1 W80       0.121000
     30 H5           4.8820     3.6480    -1.8240 hc         1 W80       0.046367
     31 H6           5.5860     4.2960    -0.3320 hc         1 W80       0.046367
     32 H7           6.6280     3.5550    -1.5590 hc         1 W80       0.046367
     33 H8           2.7510    -1.0220     1.4870 hc         1 W80       0.056200
     34 H9           1.9950     0.4570     0.9280 hc         1 W80       0.056200
     35 H10          2.1770    -0.3480    -1.4510 hc         1 W80       0.059700
     36 H11          2.9430    -1.8240    -0.8920 hc         1 W80       0.059700
     37 H12          1.5790    -3.7060    -0.1230 h4         1 W80       0.022100
     38 H13         -2.5420    -3.4070     0.1640 h4         1 W80       0.020100
     39 H14         -0.2390     0.1850    -0.6310 ha         1 W80       0.120000
     40 H15         -1.9730     1.1280     0.5650 ha         1 W80       0.114500
     41 H16         -4.0890    -2.2660    -1.0990 ha         1 W80       0.114500
     42 H17         -6.1680    -0.9450    -1.1330 ha         1 W80       0.120000
     43 H18         -4.0560     2.4460     0.5090 ha         1 W80       0.120000
     44 H19         -6.3020     2.7010    -0.6220 h1         1 W80       0.037200
     45 H20         -7.2030     1.2670    -1.1340 h1         1 W80       0.037200
     46 H21         -7.3980     0.6350     1.1860 hn         1 W80       0.412000
     47 H23         -8.9340     2.2750     2.0360 h1         1 W80       0.030033
     48 H24         -8.3550     3.4160     0.8010 h1         1 W80       0.030033
     49 H25         -9.2240     1.9410     0.3140 h1         1 W80       0.030033
@<TRIPOS>BOND
     1     1     2 1   
     2     1    26 1   
     3     1    27 1   
     4     2     3 ar  
     5     2     7 ar  
     6     3     4 ar  
     7     3    28 1   
     8     4     5 ar  
     9     4     6 1   
    10     5     8 ar  
    11     5    29 1   
    12     6    30 1   
    13     6    31 1   
    14     6    32 1   
    15     7     8 ar  
    16     8     9 1   
    17     9    10 1   
    18     9    33 1   
    19     9    34 1   
    20    10    11 1   
    21    10    35 1   
    22    10    36 1   
    23    11    12 ar  
    24    11    15 ar  
    25    12    13 ar  
    26    12    37 1   
    27    13    14 ar  
    28    14    16 ar  
    29    14    38 1   
    30    15    16 ar  
    31    15    39 1   
    32    16    17 1   
    33    17    18 ar  
    34    17    19 ar  
    35    18    22 ar  
    36    18    40 1   
    37    19    20 ar  
    38    19    41 1   
    39    20    21 ar  
    40    20    42 1   
    41    21    22 ar  
    42    21    23 1   
    43    22    43 1   
    44    23    24 1   
    45    23    44 1   
    46    23    45 1   
    47    24    25 1   
    48    24    46 1   
    49    25    47 1   
    50    25    48 1   
    51    25    49 1   
@<TRIPOS>SUBSTRUCTURE
     1 W80         1 TEMP              0 ****  ****    0 ROOT
