@<TRIPOS>MOLECULE
W80
   49    51     1     0     0
SMALL
abcg2


@<TRIPOS>ATOM
      1 N02          7.2660    -0.8280    -0.3900 nv         1 W80      -1.056900
      2 C02          6.2530     0.0440    -0.1120 ca         1 W80       0.601900
      3 C03          6.4590     1.4320    -0.1990 ca         1 W80      -0.231000
      4 C04          5.4010     2.2840     0.0410 ca         1 W80       0.001700
      5 C05          4.1610     1.7200     0.3630 ca         1 W80      -0.216000
      6 C07          5.5600     3.7710    -0.0450 c3         1 W80      -0.053800
      7 N01          5.0720    -0.4800     0.1990 nb         1 W80      -0.754000
      8 C06          4.0470     0.3440     0.4300 ca         1 W80       0.396300
      9 C08          2.7300    -0.3100     0.7360 c3         1 W80      -0.124700
     10 C09          2.1290    -0.9790    -0.5080 c3         1 W80      -0.024100
     11 C13          0.8110    -1.6260    -0.2040 ca         1 W80      -0.129300
     12 C12          0.7420    -2.9440     0.2390 ca         1 W80       0.338900
     13 N11         -0.3910    -3.5550     0.5610 nb         1 W80      -0.665000
     14 C16         -1.5230    -2.8760     0.4490 ca         1 W80       0.340900
     15 C14         -0.3870    -0.9350    -0.3190 ca         1 W80      -0.067000
     16 C15         -1.5920    -1.5550     0.0040 cp         1 W80      -0.083000
     17 C21         -2.8820    -0.8540    -0.1170 cp         1 W80      -0.031000
     18 C26         -2.9900     0.5040     0.1890 ca         1 W80      -0.102000
     19 C22         -4.0290    -1.5250    -0.5410 ca         1 W80      -0.102000
     20 C23         -5.2400    -0.8580    -0.6530 ca         1 W80      -0.098000
     21 C24         -5.3450     0.4970    -0.3570 ca         1 W80      -0.085300
     22 C25         -4.2000     1.1670     0.0710 ca         1 W80      -0.098000
     23 C27         -6.6540     1.2220    -0.5190 c3         1 W80       0.203100
     24 N28         -6.9200     2.1150     0.5900 n7         1 W80      -0.861400
     25 C29         -8.1500     2.8610     0.4180 c3         1 W80       0.145100
     26 H1           7.1410    -1.7730    -0.0660 hn         1 W80       0.469000
     27 H2           8.2100    -0.4880    -0.3120 hn         1 W80       0.469000
     28 H3           7.4370     1.8200    -0.4580 ha         1 W80       0.119000
     29 H4           3.3010     2.3480     0.5570 ha         1 W80       0.121000
     30 H5           4.8880     4.1880    -0.7960 hc         1 W80       0.046367
     31 H6           5.3080     4.2450     0.9050 hc         1 W80       0.046367
     32 H7           6.5780     4.0560    -0.3070 hc         1 W80       0.046367
     33 H8           2.8680    -1.0630     1.5150 hc         1 W80       0.056200
     34 H9           2.0290     0.4310     1.1260 hc         1 W80       0.056200
     35 H10          2.0000    -0.2300    -1.2930 hc         1 W80       0.059700
     36 H11          2.8310    -1.7220    -0.8900 hc         1 W80       0.059700
     37 H12          1.6510    -3.5300     0.3340 h4         1 W80       0.022100
     38 H13         -2.4280    -3.3990     0.7400 h4         1 W80       0.020100
     39 H14         -0.3820     0.0860    -0.6840 ha         1 W80       0.120000
     40 H15         -2.1220     1.0480     0.5410 ha         1 W80       0.114500
     41 H16         -3.9780    -2.5750    -0.8020 ha         1 W80       0.114500
     42 H17         -6.1170    -1.4030    -0.9830 ha         1 W80       0.120000
     43 H18         -4.2610     2.2180     0.3230 ha         1 W80       0.120000
     44 H19         -6.6140     1.8280    -1.4310 h1         1 W80       0.037200
     45 H20         -7.4570     0.4860    -0.6830 h1         1 W80       0.037200
     46 H21         -6.9740     1.5730     1.4430 hn         1 W80       0.412000
     47 H23         -8.3270     3.4850     1.2940 h1         1 W80       0.030033
     48 H24         -8.0630     3.5210    -0.4470 h1         1 W80       0.030033
     49 H25         -9.0400     2.2350     0.2650 h1         1 W80       0.030033
@<TRIPOS>BOND
     1     1     2 1   
     2     1    26 1   
     3     1    27 1   
     4     2     3 ar  
     5     2     7 ar  
     6     3     4 ar  
     7     3    28 1   
     8     4     5 ar  
     9     4     6 1   
    10     5     8 ar  
    11     5    29 1   
    12     6    30 1   
    13     6    31 1   
    14     6    32 1   
    15     7     8 ar  
    16     8     9 1   
    17     9    10 1   
    18     9    33 1   
    19     9    34 1   
    20    10    11 1   
    21    10    35 1   
    22    10    36 1   
    23    11    12 ar  
    24    11    15 ar  
    25    12    13 ar  
    26    12    37 1   
    27    13    14 ar  
    28    14    16 ar  
    29    14    38 1   
    30    15    16 ar  
    31    15    39 1   
    32    16    17 1   
    33    17    18 ar  
    34    17    19 ar  
    35    18    22 ar  
    36    18    40 1   
    37    19    20 ar  
    38    19    41 1   
    39    20    21 ar  
    40    20    42 1   
    41    21    22 ar  
    42    21    23 1   
    43    22    43 1   
    44    23    24 1   
    45    23    44 1   
    46    23    45 1   
    47    24    25 1   
    48    24    46 1   
    49    25    47 1   
    50    25    48 1   
    51    25    49 1   
@<TRIPOS>SUBSTRUCTURE
     1 W80         1 TEMP              0 ****  ****    0 ROOT
