@<TRIPOS>MOLECULE
W81
   26    26     1     0     0
SMALL
No Charge or Current Charge


@<TRIPOS>ATOM
      1 C10          3.2160     0.4460     0.0410 c3         1 W81       0.163600
      2 O01         -2.9850     1.1640    -1.1320 o          1 W81      -0.687000
      3 O03         -2.4820     1.5310     0.9260 o          1 W81      -0.687000
      4 C04         -1.2120    -0.0730    -0.2210 ce         1 W81      -0.213400
      5 C05         -0.9290    -0.8070    -1.3430 cf         1 W81      -0.152000
      6 C06          0.1960    -1.7300    -1.3930 cf         1 W81      -0.135000
      7 C07          1.1600    -1.6820    -0.4450 c2         1 W81      -0.310200
      8 C08          1.1130    -0.6450     0.6750 c6         1 W81       0.194500
      9 O09          1.8010     0.5540     0.2670 os         1 W81      -0.437000
     10 C11          3.7350     1.8440    -0.3290 c3         1 W81      -0.094100
     11 C12         -0.3740    -0.3140     1.0400 c6         1 W81       0.163500
     12 N13         -0.9760    -1.4980     1.8150 nz         1 W81      -0.984000
     13 H08          1.6180    -1.0390     1.5680 h1         1 W81       0.023700
     14 H12         -0.4080     0.5560     1.7080 hx         1 W81       0.128700
     15 H05         -1.5360    -0.6850    -2.2450 ha         1 W81       0.223000
     16 H06          0.2540    -2.4420    -2.2210 ha         1 W81       0.188000
     17 H07          2.0110    -2.3630    -0.4700 ha         1 W81       0.186000
     18 H10          3.7290     0.0920     0.9450 h1         1 W81       0.023700
     19 H10A         3.4330    -0.2500    -0.7800 h1         1 W81       0.023700
     20 H11          3.2440     2.2090    -1.2390 hc         1 W81       0.049367
     21 H11A         3.5440     2.5550     0.4830 hc         1 W81       0.049367
     22 H11B         4.8150     1.8110    -0.5110 hc         1 W81       0.049367
     23 HN13        -0.9690    -2.3570     1.2470 hn         1 W81       0.506667
     24 HN1A        -0.4690    -1.7150     2.6850 hn         1 W81       0.506667
     25 HN1B        -1.9570    -1.3330     2.0800 hn         1 W81       0.506667
     26 C02         -2.3060     0.9540    -0.1370 c          1 W81       0.714200
@<TRIPOS>BOND
     1     1     9 1   
     2     1    10 1   
     3     1    18 1   
     4     1    19 1   
     5     2    26 1   
     6     3    26 1   
     7     4     5 2   
     8     4    11 1   
     9     4    26 1   
    10     5     6 1   
    11     5    15 1   
    12     6     7 2   
    13     6    16 1   
    14     7     8 1   
    15     7    17 1   
    16     8     9 1   
    17     8    11 1   
    18     8    13 1   
    19    10    20 1   
    20    10    21 1   
    21    10    22 1   
    22    11    12 1   
    23    11    14 1   
    24    12    23 1   
    25    12    24 1   
    26    12    25 1   
@<TRIPOS>SUBSTRUCTURE
     1 W81         1 TEMP              0 ****  ****    0 ROOT
