@<TRIPOS>MOLECULE
W81
   26    26     1     0     0
SMALL
bcc


@<TRIPOS>ATOM
      1 C10          3.1960     0.3990     0.0290 c3         1 W81       0.140400
      2 O01         -3.0840     1.0870    -1.0440 o          1 W81      -0.792300
      3 O03         -2.8560     0.6970     1.1450 o          1 W81      -0.792300
      4 C04         -1.1820    -0.0910    -0.2680 ce         1 W81      -0.213400
      5 C05         -0.8920    -0.7630    -1.3870 cf         1 W81      -0.102000
      6 C06          0.2520    -1.6620    -1.4650 cf         1 W81      -0.085000
      7 C07          1.1930    -1.6760    -0.5170 c2         1 W81      -0.260200
      8 C08          1.1490    -0.6670     0.5980 c6         1 W81       0.171300
      9 O09          1.8030     0.5290     0.2400 os         1 W81      -0.390600
     10 C11          3.7710     1.7700    -0.2450 c3         1 W81      -0.094100
     11 C12         -0.2800    -0.2410     0.9240 c6         1 W81       0.191700
     12 N13         -0.9450    -1.2090     1.8460 nz         1 W81      -0.846600
     13 H08          1.6110    -1.0910     1.5020 h1         1 W81       0.023700
     14 H12         -0.2280     0.6910     1.4910 hx         1 W81       0.128700
     15 H05         -1.5550    -0.6960    -2.2410 ha         1 W81       0.173000
     16 H06          0.3070    -2.3450    -2.3040 ha         1 W81       0.138000
     17 H07          2.0230    -2.3680    -0.5660 ha         1 W81       0.136000
     18 H10          3.6740    -0.0450     0.9120 h1         1 W81       0.023700
     19 H10A         3.4030    -0.2670    -0.8170 h1         1 W81       0.023700
     20 H11          3.3200     2.2190    -1.1300 hc         1 W81       0.049367
     21 H11A         3.6200     2.4430     0.5990 hc         1 W81       0.049367
     22 H11B         4.8440     1.6890    -0.4220 hc         1 W81       0.049367
     23 HN13        -1.0650    -2.1320     1.4290 hn         1 W81       0.451467
     24 HN1A        -0.4500    -1.3260     2.7300 hn         1 W81       0.451467
     25 HN1B        -1.8770    -0.8090     2.0340 hn         1 W81       0.451467
     26 C02         -2.4860     0.6450    -0.0560 c          1 W81       0.924800
@<TRIPOS>BOND
     1     1     9 1   
     2     1    10 1   
     3     1    18 1   
     4     1    19 1   
     5     2    26 1   
     6     3    26 1   
     7     4     5 2   
     8     4    11 1   
     9     4    26 1   
    10     5     6 1   
    11     5    15 1   
    12     6     7 2   
    13     6    16 1   
    14     7     8 1   
    15     7    17 1   
    16     8     9 1   
    17     8    11 1   
    18     8    13 1   
    19    10    20 1   
    20    10    21 1   
    21    10    22 1   
    22    11    12 1   
    23    11    14 1   
    24    12    23 1   
    25    12    24 1   
    26    12    25 1   
@<TRIPOS>SUBSTRUCTURE
     1 W81         1 TEMP              0 ****  ****    0 ROOT
