@<TRIPOS>MOLECULE
W82
   50    52     1     0     0
SMALL
bcc


@<TRIPOS>ATOM
      1 C02          6.1250     0.5260    -0.2400 ca         1 W82       0.664200
      2 C04          5.6890    -1.7520    -0.8640 ca         1 W82       0.000700
      3 C05          4.3280    -1.4210    -0.8650 ca         1 W82      -0.298300
      4 C06          3.9520    -0.1280    -0.5530 ca         1 W82       0.461600
      5 C07          6.1360    -3.1390    -1.2130 c3         1 W82      -0.053800
      6 C08          2.5040     0.2720    -0.5130 c3         1 W82      -0.124700
      7 C11          0.5990     1.0180     0.9400 ca         1 W82      -0.053300
      8 C12          0.2540     2.3660     0.9210 ca         1 W82      -0.165000
      9 C03          6.5970    -0.7630    -0.5470 ca         1 W82      -0.314300
     10 C09          2.0420     0.6010     0.9130 c3         1 W82      -0.029100
     11 C13         -1.0830     2.7080     0.8900 ca         1 W82       0.134900
     12 C14         -2.0950     1.7720     0.8710 ca         1 W82      -0.163000
     13 C15         -1.7570     0.4180     0.8850 cp         1 W82      -0.004000
     14 C16         -0.4100     0.0600     0.9230 ca         1 W82      -0.138000
     15 C21         -2.8130    -0.6150     0.8520 cp         1 W82      -0.045000
     16 C22         -2.6810    -1.7950     1.5870 ca         1 W82      -0.113000
     17 C23         -3.6730    -2.7600     1.5410 ca         1 W82      -0.133000
     18 C24         -4.8070    -2.5630     0.7620 ca         1 W82      -0.121000
     19 C25         -4.9570    -1.3970     0.0190 ca         1 W82      -0.091300
     20 C26         -3.9570    -0.4310     0.0790 ca         1 W82      -0.091000
     21 C27         -6.1650    -1.1810    -0.8530 c3         1 W82       0.203100
     22 C29         -7.8930     0.3700    -1.4940 c3         1 W82       0.144100
     23 F13         -1.4150     4.0110     0.8870 f          1 W82      -0.145900
     24 N01          4.8320     0.8280    -0.2460 nb         1 W82      -0.753000
     25 N02          7.0000     1.5380     0.0340 nv         1 W82      -0.942500
     26 N28         -6.7630     0.1190    -0.6240 n7         1 W82      -0.804200
     27 H1           3.5790    -2.1670    -1.1000 ha         1 W82       0.139000
     28 H2           5.9450    -3.3480    -2.2670 hc         1 W82       0.046700
     29 H3           7.2010    -3.2770    -1.0310 hc         1 W82       0.046700
     30 H4           5.5900    -3.8850    -0.6340 hc         1 W82       0.046700
     31 H5           2.3540     1.1500    -1.1480 hc         1 W82       0.057700
     32 H6           1.8860    -0.5290    -0.9220 hc         1 W82       0.057700
     33 H7           1.0170     3.1350     0.9320 ha         1 W82       0.152000
     34 H8           7.6600    -0.9690    -0.5310 ha         1 W82       0.137000
     35 H9           2.1870    -0.2770     1.5480 hc         1 W82       0.057200
     36 H10          2.6700     1.3960     1.3180 hc         1 W82       0.057200
     37 H11         -3.1280     2.0940     0.8680 ha         1 W82       0.155000
     38 H12         -0.1360    -0.9890     0.9160 ha         1 W82       0.135000
     39 H13         -1.8110    -1.9510     2.2130 ha         1 W82       0.133000
     40 H14         -3.5690    -3.6670     2.1230 ha         1 W82       0.131000
     41 H15         -5.5800    -3.3220     0.7340 ha         1 W82       0.128000
     42 H16         -4.0680     0.4730    -0.5080 ha         1 W82       0.149000
     43 H17         -5.8590    -1.2260    -1.9040 h1         1 W82       0.036700
     44 H18         -6.8720    -2.0130    -0.7110 h1         1 W82       0.036700
     45 H19         -7.5550     0.4280    -2.5310 h1         1 W82       0.029700
     46 H20         -8.6780    -0.3970    -1.4480 h1         1 W82       0.029700
     47 H21         -8.3470     1.3290    -1.2420 h1         1 W82       0.029700
     48 H22          6.6150     2.3370     0.5120 hn         1 W82       0.412300
     49 H23          7.9210     1.2810     0.3480 hn         1 W82       0.412300
     50 H24         -7.0660     0.1750     0.3410 hn         1 W82       0.355800
@<TRIPOS>BOND
     1     1     9 ar  
     2     1    24 ar  
     3     1    25 1   
     4     2     3 ar  
     5     2     5 1   
     6     2     9 ar  
     7     3     4 ar  
     8     3    27 1   
     9     4     6 1   
    10     4    24 ar  
    11     5    28 1   
    12     5    29 1   
    13     5    30 1   
    14     6    10 1   
    15     6    31 1   
    16     6    32 1   
    17     7     8 ar  
    18     7    10 1   
    19     7    14 ar  
    20     8    11 ar  
    21     8    33 1   
    22     9    34 1   
    23    10    35 1   
    24    10    36 1   
    25    11    12 ar  
    26    11    23 1   
    27    12    13 ar  
    28    12    37 1   
    29    13    14 ar  
    30    13    15 1   
    31    14    38 1   
    32    15    16 ar  
    33    15    20 ar  
    34    16    17 ar  
    35    16    39 1   
    36    17    18 ar  
    37    17    40 1   
    38    18    19 ar  
    39    18    41 1   
    40    19    20 ar  
    41    19    21 1   
    42    20    42 1   
    43    21    26 1   
    44    21    43 1   
    45    21    44 1   
    46    22    26 1   
    47    22    45 1   
    48    22    46 1   
    49    22    47 1   
    50    25    48 1   
    51    25    49 1   
    52    26    50 1   
@<TRIPOS>SUBSTRUCTURE
     1 W82         1 TEMP              0 ****  ****    0 ROOT
