@<TRIPOS>MOLECULE
W82
   50    52     1     0     0
SMALL
No Charge or Current Charge


@<TRIPOS>ATOM
      1 C02          6.3690     0.5320    -0.6610 ca         1 W82       0.598900
      2 C04          5.8140    -1.7980    -0.4500 ca         1 W82       0.000700
      3 C05          4.4700    -1.3900    -0.4450 ca         1 W82      -0.215000
      4 C06          4.1600    -0.0210    -0.5470 ca         1 W82       0.396300
      5 C07          6.1950    -3.2650    -0.3440 c3         1 W82      -0.053800
      6 C08          2.7130     0.4500    -0.5320 c3         1 W82      -0.124700
      7 C11          0.6740     0.9680     0.8960 ca         1 W82      -0.053300
      8 C12          0.3500     2.3300     1.0300 ca         1 W82      -0.147000
      9 C03          6.7900    -0.7960    -0.5630 ca         1 W82      -0.231000
     10 C09          2.1290     0.5200     0.8950 c3         1 W82      -0.029100
     11 C13         -0.9920     2.7330     1.0200 ca         1 W82       0.170000
     12 C14         -2.0190     1.7890     0.8760 ca         1 W82      -0.145000
     13 C15         -1.7240     0.4100     0.7370 cp         1 W82      -0.004000
     14 C16         -0.3600     0.0220     0.7500 ca         1 W82      -0.120000
     15 C21         -2.8160    -0.6030     0.5810 cp         1 W82      -0.045000
     16 C22         -2.7010    -1.8970     1.1500 ca         1 W82      -0.095000
     17 C23         -3.7270    -2.8460     1.0050 ca         1 W82      -0.115000
     18 C24         -4.8890    -2.5230     0.2870 ca         1 W82      -0.103000
     19 C25         -5.0310    -1.2470    -0.2910 ca         1 W82      -0.091300
     20 C26         -3.9990    -0.3000    -0.1400 ca         1 W82      -0.073000
     21 C27         -6.2850    -0.8940    -1.0790 c3         1 W82       0.203100
     22 C29         -8.4870     0.2540    -0.9010 c3         1 W82       0.144100
     23 F13         -1.2990     4.0420     1.1530 f          1 W82      -0.181000
     24 N01          5.1080     0.9370    -0.6510 nb         1 W82      -0.753000
     25 N02          7.2070     1.5660    -0.7620 nv         1 W82      -1.052900
     26 N28         -7.2170    -0.1130    -0.2450 n7         1 W82      -0.859400
     27 H1           3.6720    -2.1230    -0.3610 ha         1 W82       0.121000
     28 H2           6.2280    -3.7320    -1.3360 hc         1 W82       0.046700
     29 H3           7.1800    -3.3900     0.1190 hc         1 W82       0.046700
     30 H4           5.4710    -3.8210     0.2640 hc         1 W82       0.046700
     31 H5           2.6260     1.4360    -1.0040 hc         1 W82       0.057700
     32 H6           2.1020    -0.2320    -1.1360 hc         1 W82       0.057700
     33 H7           1.1340     3.0750     1.1390 ha         1 W82       0.134000
     34 H8           7.8470    -1.0430    -0.5770 ha         1 W82       0.119000
     35 H9           2.2190    -0.4640     1.3720 hc         1 W82       0.057200
     36 H10          2.7380     1.2060     1.4980 hc         1 W82       0.057200
     37 H11         -3.0500     2.1310     0.8860 ha         1 W82       0.137000
     38 H12         -0.1000    -1.0260     0.6290 ha         1 W82       0.117000
     39 H13         -1.8150    -2.1630     1.7210 ha         1 W82       0.115000
     40 H14         -3.6210    -3.8320     1.4520 ha         1 W82       0.113000
     41 H15         -5.6780    -3.2640     0.1790 ha         1 W82       0.110000
     42 H16         -4.1150     0.6790    -0.5980 ha         1 W82       0.131000
     43 H17         -5.9970    -0.3210    -1.9720 h1         1 W82       0.036700
     44 H18         -6.7650    -1.8190    -1.4280 h1         1 W82       0.036700
     45 H19         -8.3030     0.8640    -1.7960 h1         1 W82       0.029700
     46 H20         -9.0450    -0.6420    -1.2040 h1         1 W82       0.029700
     47 H21         -9.1200     0.8350    -0.2170 h1         1 W82       0.029700
     48 H22          6.7850     2.4690    -0.5870 hn         1 W82       0.467500
     49 H23          8.1570     1.4360    -0.4350 hn         1 W82       0.467500
     50 H24         -7.4350    -0.6770     0.5860 hn         1 W82       0.411000
@<TRIPOS>BOND
     1     1     9 ar  
     2     1    24 ar  
     3     1    25 1   
     4     2     3 ar  
     5     2     5 1   
     6     2     9 ar  
     7     3     4 ar  
     8     3    27 1   
     9     4     6 1   
    10     4    24 ar  
    11     5    28 1   
    12     5    29 1   
    13     5    30 1   
    14     6    10 1   
    15     6    31 1   
    16     6    32 1   
    17     7     8 ar  
    18     7    10 1   
    19     7    14 ar  
    20     8    11 ar  
    21     8    33 1   
    22     9    34 1   
    23    10    35 1   
    24    10    36 1   
    25    11    12 ar  
    26    11    23 1   
    27    12    13 ar  
    28    12    37 1   
    29    13    14 ar  
    30    13    15 1   
    31    14    38 1   
    32    15    16 ar  
    33    15    20 ar  
    34    16    17 ar  
    35    16    39 1   
    36    17    18 ar  
    37    17    40 1   
    38    18    19 ar  
    39    18    41 1   
    40    19    20 ar  
    41    19    21 1   
    42    20    42 1   
    43    21    26 1   
    44    21    43 1   
    45    21    44 1   
    46    22    26 1   
    47    22    45 1   
    48    22    46 1   
    49    22    47 1   
    50    25    48 1   
    51    25    49 1   
    52    26    50 1   
@<TRIPOS>SUBSTRUCTURE
     1 W82         1 TEMP              0 ****  ****    0 ROOT
