@<TRIPOS>MOLECULE
W83
   44    46     1     0     0
SMALL
abcg2


@<TRIPOS>ATOM
      1 OAB         -5.5180    -2.5620    -0.4290 o          1 W83      -0.689000
      2 CAS         -4.4130    -2.0110    -0.2670 c          1 W83       0.718200
      3 OAE         -3.2910    -2.5290    -0.2830 o          1 W83      -0.689000
      4 CAV         -4.4990    -0.4890    -0.0350 cc         1 W83       0.027400
      5 NAO         -5.7670    -0.0180    -0.2420 ns         1 W83      -0.494600
      6 CAX         -6.1530     1.2780    -0.1400 c          1 W83       0.606000
      7 OAC         -7.2910     1.6650    -0.3330 o          1 W83      -0.609000
      8 NAP         -5.1270     2.1190     0.2010 ns         1 W83      -0.471500
      9 CAY         -3.8120     1.7690     0.4470 c          1 W83       0.578200
     10 OAD         -3.0050     2.6370     0.7400 o          1 W83      -0.588000
     11 CAW         -3.4980     0.3500     0.3270 cd         1 W83      -0.293400
     12 CAM         -2.0710    -0.0380     0.5780 c3         1 W83       0.019800
     13 CAL         -1.2200     0.0340    -0.6980 c3         1 W83      -0.036100
     14 CAT          0.1830    -0.4390    -0.4550 ca         1 W83      -0.038300
     15 CAJ          1.2270     0.4380    -0.3200 ca         1 W83      -0.125000
     16 CBA          2.5450    -0.0130    -0.0600 ca         1 W83      -0.003000
     17 CAK          3.6240     0.8830     0.0800 ca         1 W83      -0.140000
     18 CAF          0.4320    -1.8300    -0.3270 ca         1 W83      -0.092000
     19 CAH          1.6900    -2.2990    -0.0780 ca         1 W83      -0.111000
     20 CAZ          2.7790    -1.4050     0.0630 ca         1 W83      -0.069000
     21 CAI          4.0950    -1.8450     0.3160 ca         1 W83      -0.068000
     22 CAG          5.1360    -0.9650     0.4420 ca         1 W83      -0.180000
     23 CAU          4.8960     0.4250     0.3290 ca         1 W83       0.118100
     24 OAR          5.8590     1.3710     0.4540 os         1 W83      -0.386100
     25 CAN          7.1770     1.0040     0.7900 c3         1 W83       0.381600
     26 OAQ          7.8420     0.3570    -0.2330 os         1 W83      -0.472000
     27 CAA          8.1020     1.1630    -1.3660 c3         1 W83       0.147900
     28 H2          -6.4570    -0.7250    -0.4720 hn         1 W83       0.489000
     29 H3          -5.3590     3.1010     0.2810 hn         1 W83       0.319500
     30 H4          -1.6460     0.6380     1.3220 hc         1 W83       0.057200
     31 H5          -2.0190    -1.0420     0.9880 hc         1 W83       0.057200
     32 H6          -1.6910    -0.5900    -1.4600 hc         1 W83       0.055200
     33 H7          -1.2110     1.0580    -1.0760 hc         1 W83       0.055200
     34 H8           1.0510     1.5050    -0.4150 ha         1 W83       0.114000
     35 H9           3.4470     1.9490    -0.0090 ha         1 W83       0.121000
     36 H10         -0.3950    -2.5220    -0.4320 ha         1 W83       0.150000
     37 H11          1.8690    -3.3640     0.0110 ha         1 W83       0.106000
     38 H12          4.2860    -2.9080     0.4050 ha         1 W83       0.105000
     39 H13          6.1280    -1.3560     0.6170 ha         1 W83       0.116000
     40 H14          7.6610     1.9500     1.0540 h2         1 W83       0.057700
     41 H15          7.1910     0.3360     1.6560 h2         1 W83       0.057700
     42 H16          8.7620     0.5990    -2.0220 h1         1 W83       0.033033
     43 H17          7.1930     1.4100    -1.9200 h1         1 W83       0.033033
     44 H18          8.6010     2.0980    -1.0890 h1         1 W83       0.033033
@<TRIPOS>BOND
     1     1     2 1   
     2     2     3 1   
     3     2     4 1   
     4     4     5 1   
     5     4    11 2   
     6     5     6 1   
     7     5    28 1   
     8     6     7 2   
     9     6     8 1   
    10     8     9 1   
    11     8    29 1   
    12     9    10 2   
    13     9    11 1   
    14    11    12 1   
    15    12    13 1   
    16    12    30 1   
    17    12    31 1   
    18    13    14 1   
    19    13    32 1   
    20    13    33 1   
    21    14    15 ar  
    22    14    18 ar  
    23    15    16 ar  
    24    15    34 1   
    25    16    17 ar  
    26    16    20 ar  
    27    17    23 ar  
    28    17    35 1   
    29    18    19 ar  
    30    18    36 1   
    31    19    20 ar  
    32    19    37 1   
    33    20    21 ar  
    34    21    22 ar  
    35    21    38 1   
    36    22    23 ar  
    37    22    39 1   
    38    23    24 1   
    39    24    25 1   
    40    25    26 1   
    41    25    40 1   
    42    25    41 1   
    43    26    27 1   
    44    27    42 1   
    45    27    43 1   
    46    27    44 1   
@<TRIPOS>SUBSTRUCTURE
     1 W83         1 TEMP              0 ****  ****    0 ROOT
