@<TRIPOS>MOLECULE
W83
   44    46     1     0     0
SMALL
No Charge or Current Charge


@<TRIPOS>ATOM
      1 OAB         -5.5840    -2.5230    -0.5830 o          1 W83      -0.689000
      2 CAS         -4.5290    -1.9740    -0.2810 c          1 W83       0.718200
      3 OAE         -3.4900    -2.6070    -0.1590 o          1 W83      -0.689000
      4 CAV         -4.5600    -0.4650    -0.0780 cc         1 W83       0.027400
      5 NAO         -5.8010     0.1360    -0.2830 ns         1 W83      -0.494600
      6 CAX         -6.0830     1.4570    -0.1890 c          1 W83       0.606000
      7 OAC         -7.1950     1.9070    -0.3850 o          1 W83      -0.609000
      8 NAP         -5.0220     2.2270     0.1400 ns         1 W83      -0.471500
      9 CAY         -3.7400     1.8400     0.3840 c          1 W83       0.578200
     10 OAD         -2.8910     2.6710     0.6650 o          1 W83      -0.588000
     11 CAW         -3.4950     0.3690     0.2740 cd         1 W83      -0.293400
     12 CAM         -2.0650    -0.0680     0.5620 c3         1 W83       0.019800
     13 CAL         -1.2040    -0.1460    -0.7160 c3         1 W83      -0.036100
     14 CAT          0.2140    -0.6190    -0.4270 ca         1 W83      -0.038300
     15 CAJ          1.2540     0.3140    -0.2510 ca         1 W83      -0.125000
     16 CBA          2.5640    -0.1240     0.0210 ca         1 W83      -0.003000
     17 CAK          3.6020     0.8090     0.1960 ca         1 W83      -0.140000
     18 CAF          0.4930    -1.9950    -0.3250 ca         1 W83      -0.092000
     19 CAH          1.7990    -2.4380    -0.0530 ca         1 W83      -0.111000
     20 CAZ          2.8380    -1.5050     0.1200 ca         1 W83      -0.069000
     21 CAI          4.1470    -1.9410     0.3930 ca         1 W83      -0.068000
     22 CAG          5.1820    -1.0050     0.5670 ca         1 W83      -0.180000
     23 CAU          4.9120     0.3770     0.4650 ca         1 W83       0.118100
     24 OAR          5.8830     1.3440     0.6330 os         1 W83      -0.386100
     25 CAN          7.2760     1.0280     0.8260 c3         1 W83       0.381600
     26 OAQ          7.7810     0.4810    -0.4080 os         1 W83      -0.472000
     27 CAA          7.8400     1.4090    -1.5060 c3         1 W83       0.147900
     28 H2          -6.5900    -0.4520    -0.5360 hn         1 W83       0.489000
     29 H3          -5.2030     3.2150     0.2130 hn         1 W83       0.319500
     30 H4          -1.5770     0.6180     1.2650 hc         1 W83       0.057200
     31 H5          -2.0440    -1.0330     1.0800 hc         1 W83       0.057200
     32 H6          -1.6840    -0.8220    -1.4340 hc         1 W83       0.055200
     33 H7          -1.1860     0.8410    -1.1950 hc         1 W83       0.055200
     34 H8           1.0440     1.3780    -0.3240 ha         1 W83       0.114000
     35 H9           3.3970     1.8730     0.1220 ha         1 W83       0.121000
     36 H10         -0.3070    -2.7230    -0.4550 ha         1 W83       0.150000
     37 H11          2.0000    -3.5040     0.0230 ha         1 W83       0.106000
     38 H12          4.3650    -3.0040     0.4720 ha         1 W83       0.105000
     39 H13          6.1830    -1.3710     0.7770 ha         1 W83       0.116000
     40 H14          7.8350     1.9310     1.0990 h2         1 W83       0.057700
     41 H15          7.3970     0.3120     1.6480 h2         1 W83       0.057700
     42 H16          8.2690     0.9240    -2.3920 h1         1 W83       0.033033
     43 H17          6.8390     1.7730    -1.7710 h1         1 W83       0.033033
     44 H18          8.4690     2.2730    -1.2540 h1         1 W83       0.033033
@<TRIPOS>BOND
     1     1     2 1   
     2     2     3 1   
     3     2     4 1   
     4     4     5 1   
     5     4    11 2   
     6     5     6 1   
     7     5    28 1   
     8     6     7 2   
     9     6     8 1   
    10     8     9 1   
    11     8    29 1   
    12     9    10 2   
    13     9    11 1   
    14    11    12 1   
    15    12    13 1   
    16    12    30 1   
    17    12    31 1   
    18    13    14 1   
    19    13    32 1   
    20    13    33 1   
    21    14    15 ar  
    22    14    18 ar  
    23    15    16 ar  
    24    15    34 1   
    25    16    17 ar  
    26    16    20 ar  
    27    17    23 ar  
    28    17    35 1   
    29    18    19 ar  
    30    18    36 1   
    31    19    20 ar  
    32    19    37 1   
    33    20    21 ar  
    34    21    22 ar  
    35    21    38 1   
    36    22    23 ar  
    37    22    39 1   
    38    23    24 1   
    39    24    25 1   
    40    25    26 1   
    41    25    40 1   
    42    25    41 1   
    43    26    27 1   
    44    27    42 1   
    45    27    43 1   
    46    27    44 1   
@<TRIPOS>SUBSTRUCTURE
     1 W83         1 TEMP              0 ****  ****    0 ROOT
