@<TRIPOS>MOLECULE
W84
   54    56     1     0     0
SMALL
No Charge or Current Charge


@<TRIPOS>ATOM
      1 O1          -0.3440    -1.1080    -8.7370 os         1 W84      -0.077700
      2 N2          -0.8700    -0.7360   -10.0320 nc         1 W84      -0.366300
      3 C3          -0.4240     0.4920   -10.2250 cd         1 W84       0.279300
      4 C31         -0.7580     1.2450   -11.4800 c3         1 W84      -0.133400
      5 C4           0.3570     0.9550    -9.1530 cd         1 W84      -0.251000
      6 C5           0.3880    -0.0540    -8.2450 cc         1 W84       0.186300
      7 C1C          1.0570    -0.1670    -6.9050 c3         1 W84      -0.116700
      8 C2C          0.0660    -0.0460    -5.7270 c3         1 W84      -0.073400
      9 C3C          0.7510    -0.1530    -4.3470 c3         1 W84      -0.075400
     10 C4C         -0.2420    -0.0310    -3.1690 c3         1 W84      -0.074400
     11 C5C          0.4430    -0.1380    -1.7890 c3         1 W84      -0.073400
     12 C6C         -0.5480    -0.0160    -0.6110 c3         1 W84      -0.082400
     13 C7C          0.1370    -0.1230     0.7650 c3         1 W84       0.165600
     14 O1B         -0.8820     0.0040     1.7700 os         1 W84      -0.347100
     15 C1B         -0.5940    -0.0490     3.1180 ca         1 W84       0.171100
     16 C2B         -1.6570     0.0860     4.0220 ca         1 W84      -0.191500
     17 C3B         -1.4290     0.0400     5.4070 ca         1 W84      -0.026500
     18 C4B         -0.1230    -0.1420     5.9110 ca         1 W84      -0.176900
     19 C5B          0.9470    -0.2760     4.9980 ca         1 W84      -0.026500
     20 C6B          0.7150    -0.2310     3.6110 ca         1 W84      -0.191500
     21 C2A          0.1210    -0.1890     7.3870 ce         1 W84       0.650200
     22 N3A          1.2930    -0.3330     7.9260 n2         1 W84      -0.651900
     23 C4A          1.0860    -0.1770     9.3850 c5         1 W84       0.089500
     24 CM1          1.5640     1.2250     9.8280 c3         1 W84      -0.083100
     25 C5A         -0.4370    -0.4090     9.5290 c5         1 W84       0.115600
     26 O1A         -0.9420    -0.0130     8.2450 os         1 W84      -0.455600
     27 H311        -0.3090     2.2450   -11.4720 hc         1 W84       0.055700
     28 H312        -0.3850     0.7170   -12.3650 hc         1 W84       0.055700
     29 H313        -1.8420     1.3650   -11.5880 hc         1 W84       0.055700
     30 H4           0.8370     1.9220    -9.0650 ha         1 W84       0.151000
     31 H1C1         1.8230     0.6120    -6.8150 hc         1 W84       0.062700
     32 H1C2         1.5800    -1.1290    -6.8420 hc         1 W84       0.062700
     33 H2C1        -0.6950    -0.8320    -5.8140 hc         1 W84       0.052200
     34 H2C2        -0.4590     0.9160    -5.7970 hc         1 W84       0.052200
     35 H3C1         1.5110     0.6340    -4.2600 hc         1 W84       0.039200
     36 H3C2         1.2750    -1.1140    -4.2780 hc         1 W84       0.039200
     37 H4C1        -1.0020    -0.8180    -3.2560 hc         1 W84       0.042700
     38 H4C2        -0.7660     0.9300    -3.2380 hc         1 W84       0.042700
     39 H5C1         1.2040     0.6490    -1.7020 hc         1 W84       0.039200
     40 H5C2         0.9680    -1.0990    -1.7200 hc         1 W84       0.039200
     41 H6C1        -1.3070    -0.8040    -0.6940 hc         1 W84       0.056700
     42 H6C2        -1.0710     0.9460    -0.6750 hc         1 W84       0.056700
     43 H7C1         0.8840     0.6760     0.8650 h1         1 W84       0.036700
     44 H7C2         0.6450    -1.0930     0.8470 h1         1 W84       0.036700
     45 H2B         -2.6670     0.2260     3.6450 ha         1 W84       0.125000
     46 H3B         -2.2730     0.1470     6.0870 ha         1 W84       0.132500
     47 H5B          1.9640    -0.4170     5.3590 ha         1 W84       0.132500
     48 H6B          1.5610    -0.3380     2.9400 ha         1 W84       0.125000
     49 H4A          1.6520    -0.9360     9.9450 h1         1 W84       0.074700
     50 HM11         2.6370     1.3520     9.6410 hc         1 W84       0.042700
     51 HM12         1.0320     2.0210     9.2940 hc         1 W84       0.042700
     52 HM13         1.3950     1.3720    10.9010 hc         1 W84       0.042700
     53 H5A1        -0.6630    -1.4730     9.6850 h1         1 W84       0.061200
     54 H5A2        -0.9030     0.1800    10.3300 h1         1 W84       0.061200
@<TRIPOS>BOND
     1     1     2 1   
     2     1     6 1   
     3     2     3 2   
     4     3     4 1   
     5     3     5 1   
     6     4    27 1   
     7     4    28 1   
     8     4    29 1   
     9     5     6 2   
    10     5    30 1   
    11     6     7 1   
    12     7     8 1   
    13     7    31 1   
    14     7    32 1   
    15     8     9 1   
    16     8    33 1   
    17     8    34 1   
    18     9    10 1   
    19     9    35 1   
    20     9    36 1   
    21    10    11 1   
    22    10    37 1   
    23    10    38 1   
    24    11    12 1   
    25    11    39 1   
    26    11    40 1   
    27    12    13 1   
    28    12    41 1   
    29    12    42 1   
    30    13    14 1   
    31    13    43 1   
    32    13    44 1   
    33    14    15 1   
    34    15    16 ar  
    35    15    20 ar  
    36    16    17 ar  
    37    16    45 1   
    38    17    18 ar  
    39    17    46 1   
    40    18    19 ar  
    41    18    21 1   
    42    19    20 ar  
    43    19    47 1   
    44    20    48 1   
    45    21    22 2   
    46    21    26 1   
    47    22    23 1   
    48    23    24 1   
    49    23    25 1   
    50    23    49 1   
    51    24    50 1   
    52    24    51 1   
    53    24    52 1   
    54    25    26 1   
    55    25    53 1   
    56    25    54 1   
@<TRIPOS>SUBSTRUCTURE
     1 W84         1 TEMP              0 ****  ****    0 ROOT
