@<TRIPOS>MOLECULE
W84
   54    56     1     0     0
SMALL
abcg2


@<TRIPOS>ATOM
      1 O1          -0.3540    -0.9330    -8.4950 os         1 W84      -0.077700
      2 N2          -0.8250    -0.6820    -9.7540 nc         1 W84      -0.366300
      3 C3          -0.3120     0.4580   -10.1160 cd         1 W84       0.279300
      4 C31         -0.6060     1.0490   -11.4480 c3         1 W84      -0.133400
      5 C4           0.5160     0.9860    -9.0900 cd         1 W84      -0.251000
      6 C5           0.4470     0.0640    -8.1020 cc         1 W84       0.186300
      7 C1C          1.0500    -0.0190    -6.7490 c3         1 W84      -0.116700
      8 C2C          0.0170     0.0050    -5.6190 c3         1 W84      -0.073400
      9 C3C          0.6770    -0.0430    -4.2470 c3         1 W84      -0.075400
     10 C4C         -0.3320    -0.0240    -3.1060 c3         1 W84      -0.074400
     11 C5C          0.3230    -0.0840    -1.7320 c3         1 W84      -0.073400
     12 C6C         -0.6950    -0.0550    -0.5980 c3         1 W84      -0.082400
     13 C7C         -0.0240    -0.1440     0.7560 c3         1 W84       0.165600
     14 O1B         -1.0350    -0.0920     1.7550 os         1 W84      -0.347100
     15 C1B         -0.6880    -0.1170     3.0480 ca         1 W84       0.171100
     16 C2B         -1.7330    -0.0180     3.9710 ca         1 W84      -0.191500
     17 C3B         -1.4720    -0.0340     5.3260 ca         1 W84      -0.026500
     18 C4B         -0.1630    -0.1490     5.7990 ca         1 W84      -0.176900
     19 C5B          0.8720    -0.2490     4.8730 ca         1 W84      -0.026500
     20 C6B          0.6230    -0.2350     3.5110 ca         1 W84      -0.191500
     21 C2A          0.1390    -0.1660     7.2310 ce         1 W84       0.650200
     22 N3A          1.2910    -0.2830     7.7470 n2         1 W84      -0.651900
     23 C4A          1.1320    -0.2070     9.1950 c5         1 W84       0.089500
     24 CM1          1.8830     0.9850     9.7680 c3         1 W84      -0.083100
     25 C5A         -0.3960    -0.1250     9.3950 c5         1 W84       0.115600
     26 O1A         -0.9130    -0.0450     8.0600 os         1 W84      -0.455600
     27 H311        -1.0530     2.0370   -11.3400 hc         1 W84       0.055700
     28 H312         0.3120     1.1700   -12.0240 hc         1 W84       0.055700
     29 H313        -1.2900     0.4210   -12.0160 hc         1 W84       0.055700
     30 H4           1.0720     1.9080    -9.0970 ha         1 W84       0.151000
     31 H1C1         1.7380     0.8200    -6.6390 hc         1 W84       0.062700
     32 H1C2         1.6520    -0.9300    -6.6740 hc         1 W84       0.062700
     33 H2C1        -0.6670    -0.8420    -5.7230 hc         1 W84       0.052200
     34 H2C2        -0.5930     0.9090    -5.7030 hc         1 W84       0.052200
     35 H3C1         1.3610     0.8060    -4.1420 hc         1 W84       0.039200
     36 H3C2         1.2960    -0.9440    -4.1720 hc         1 W84       0.039200
     37 H4C1        -1.0200    -0.8690    -3.2170 hc         1 W84       0.042700
     38 H4C2        -0.9470     0.8800    -3.1780 hc         1 W84       0.042700
     39 H5C1         1.0170     0.7560    -1.6230 hc         1 W84       0.039200
     40 H5C2         0.9300    -0.9920    -1.6590 hc         1 W84       0.039200
     41 H6C1        -1.3950    -0.8880    -0.7120 hc         1 W84       0.056700
     42 H6C2        -1.2820     0.8660    -0.6550 hc         1 W84       0.056700
     43 H7C1         0.6820     0.6840     0.8890 h1         1 W84       0.036700
     44 H7C2         0.5430    -1.0780     0.8370 h1         1 W84       0.036700
     45 H2B         -2.7510     0.0740     3.6140 ha         1 W84       0.125000
     46 H3B         -2.3020     0.0450     6.0140 ha         1 W84       0.132500
     47 H5B          1.8920    -0.3390     5.2220 ha         1 W84       0.132500
     48 H6B          1.4580    -0.3150     2.8300 ha         1 W84       0.125000
     49 H4A          1.5300    -1.1200     9.6470 h1         1 W84       0.074700
     50 HM11         2.9480     0.9170     9.5470 hc         1 W84       0.042700
     51 HM12         1.5060     1.9210     9.3530 hc         1 W84       0.042700
     52 HM13         1.7660     1.0230    10.8520 hc         1 W84       0.042700
     53 H5A1        -0.8120    -1.0090     9.8800 h1         1 W84       0.061200
     54 H5A2        -0.7130     0.7610     9.9490 h1         1 W84       0.061200
@<TRIPOS>BOND
     1     1     2 1   
     2     1     6 1   
     3     2     3 2   
     4     3     4 1   
     5     3     5 1   
     6     4    27 1   
     7     4    28 1   
     8     4    29 1   
     9     5     6 2   
    10     5    30 1   
    11     6     7 1   
    12     7     8 1   
    13     7    31 1   
    14     7    32 1   
    15     8     9 1   
    16     8    33 1   
    17     8    34 1   
    18     9    10 1   
    19     9    35 1   
    20     9    36 1   
    21    10    11 1   
    22    10    37 1   
    23    10    38 1   
    24    11    12 1   
    25    11    39 1   
    26    11    40 1   
    27    12    13 1   
    28    12    41 1   
    29    12    42 1   
    30    13    14 1   
    31    13    43 1   
    32    13    44 1   
    33    14    15 1   
    34    15    16 ar  
    35    15    20 ar  
    36    16    17 ar  
    37    16    45 1   
    38    17    18 ar  
    39    17    46 1   
    40    18    19 ar  
    41    18    21 1   
    42    19    20 ar  
    43    19    47 1   
    44    20    48 1   
    45    21    22 2   
    46    21    26 1   
    47    22    23 1   
    48    23    24 1   
    49    23    25 1   
    50    23    49 1   
    51    24    50 1   
    52    24    51 1   
    53    24    52 1   
    54    25    26 1   
    55    25    53 1   
    56    25    54 1   
@<TRIPOS>SUBSTRUCTURE
     1 W84         1 TEMP              0 ****  ****    0 ROOT
