@<TRIPOS>MOLECULE
W85
   36    37     1     0     0
SMALL
bcc


@<TRIPOS>ATOM
      1 OAB         -4.2720    -2.6390     0.0050 o          1 W85      -0.794300
      2 CAP         -3.1580    -2.0870     0.0580 c          1 W85       0.928800
      3 OAF         -2.0400    -2.6150     0.0610 o          1 W85      -0.794300
      4 CAT         -3.2220    -0.5470     0.1060 cc         1 W85       0.027400
      5 NAM         -4.4940    -0.0880    -0.0980 ns         1 W85      -0.448100
      6 CAV         -4.8640     1.2170    -0.1370 c          1 W85       0.815500
      7 OAD         -6.0080     1.5930    -0.3170 o          1 W85      -0.684500
      8 NAN         -3.8150     2.0790     0.0430 ns         1 W85      -0.605500
      9 CAW         -2.4910     1.7440     0.2620 c          1 W85       0.720700
     10 OAE         -1.6610     2.6280     0.3930 o          1 W85      -0.659500
     11 CAU         -2.1980     0.3170     0.3140 cd         1 W85      -0.295400
     12 CAL         -0.7680    -0.0620     0.5550 c3         1 W85       0.019800
     13 CAK          0.0260    -0.2000    -0.7510 c3         1 W85      -0.032100
     14 CAR          1.4350    -0.6490    -0.4940 ca         1 W85      -0.071300
     15 CAJ          2.4790     0.2620    -0.4090 ca         1 W85      -0.077000
     16 CAH          1.7160    -2.0000    -0.2920 ca         1 W85      -0.084000
     17 CAG          3.0090    -2.4250    -0.0220 ca         1 W85      -0.158000
     18 CAI          4.0460    -1.5090     0.0570 ca         1 W85      -0.092000
     19 CAS          3.7810    -0.1540    -0.1360 ca         1 W85      -0.158600
     20 CAQ          4.8430     0.8810    -0.0670 c          1 W85       0.655700
     21 OAC          4.6430     2.0630    -0.2200 o          1 W85      -0.548000
     22 OAO          6.0400     0.3730     0.1800 os         1 W85      -0.419900
     23 CAA          7.1380     1.2810     0.2650 c3         1 W85       0.132700
     24 H2          -4.0370     3.0670     0.0180 hn         1 W85       0.319500
     25 H4          -0.2980     0.7050     1.1740 hc         1 W85       0.056200
     26 H5          -0.7130    -0.9970     1.1060 hc         1 W85       0.056200
     27 H6          -0.4790    -0.9230    -1.3920 hc         1 W85       0.056200
     28 H7           0.0290     0.7560    -1.2800 hc         1 W85       0.056200
     29 H8           2.2770     1.3150    -0.5640 ha         1 W85       0.153000
     30 H9           0.9090    -2.7210    -0.3470 ha         1 W85       0.166000
     31 H10          3.2110    -3.4780     0.1250 ha         1 W85       0.127000
     32 H11          5.0480    -1.8550     0.2680 ha         1 W85       0.132000
     33 H12          7.0040     1.9900     1.0810 h1         1 W85       0.041700
     34 H13          8.0150     0.6700     0.4570 h1         1 W85       0.041700
     35 H14          7.2750     1.8270    -0.6680 h1         1 W85       0.041700
     36 H15         -5.2010    -0.8060    -0.2100 hn         1 W85       0.375500
@<TRIPOS>BOND
     1     1     2 1   
     2     2     3 1   
     3     2     4 1   
     4     4     5 1   
     5     4    11 2   
     6     5     6 1   
     7     5    36 1   
     8     6     7 2   
     9     6     8 1   
    10     8     9 1   
    11     8    24 1   
    12     9    10 2   
    13     9    11 1   
    14    11    12 1   
    15    12    13 1   
    16    12    25 1   
    17    12    26 1   
    18    13    14 1   
    19    13    27 1   
    20    13    28 1   
    21    14    15 ar  
    22    14    16 ar  
    23    15    19 ar  
    24    15    29 1   
    25    16    17 ar  
    26    16    30 1   
    27    17    18 ar  
    28    17    31 1   
    29    18    19 ar  
    30    18    32 1   
    31    19    20 1   
    32    20    21 2   
    33    20    22 1   
    34    22    23 1   
    35    23    33 1   
    36    23    34 1   
    37    23    35 1   
@<TRIPOS>SUBSTRUCTURE
     1 W85         1 TEMP              0 ****  ****    0 ROOT
