@<TRIPOS>MOLECULE
W85
   36    37     1     0     0
SMALL
No Charge or Current Charge


@<TRIPOS>ATOM
      1 OAB         -4.3290    -2.6950    -0.2040 o          1 W85      -0.689000
      2 CAP         -3.2720    -2.1080     0.0040 c          1 W85       0.718200
      3 OAF         -2.2190    -2.7150     0.1350 o          1 W85      -0.689000
      4 CAT         -3.3190    -0.5880     0.0760 cc         1 W85       0.027400
      5 NAM         -4.5770    -0.0230    -0.1290 ns         1 W85      -0.494600
      6 CAV         -4.8770     1.2980    -0.1380 c          1 W85       0.606000
      7 OAD         -6.0020     1.7150    -0.3250 o          1 W85      -0.609000
      8 NAN         -3.8150     2.1070     0.0770 ns         1 W85      -0.471500
      9 CAW         -2.5180     1.7590     0.3000 c          1 W85       0.578200
     10 OAE         -1.6710     2.6210     0.4710 o          1 W85      -0.584000
     11 CAU         -2.2550     0.2870     0.3090 cd         1 W85      -0.295400
     12 CAL         -0.8070    -0.1050     0.5740 c3         1 W85       0.019800
     13 CAK          0.0030    -0.2820    -0.7270 c3         1 W85      -0.032100
     14 CAR          1.4400    -0.7090    -0.4570 ca         1 W85      -0.071300
     15 CAJ          2.4690     0.2510    -0.3990 ca         1 W85      -0.059000
     16 CAH          1.7450    -2.0670    -0.2540 ca         1 W85      -0.066000
     17 CAG          3.0680    -2.4610    -0.0000 ca         1 W85      -0.140000
     18 CAI          4.0940    -1.5030     0.0540 ca         1 W85      -0.074000
     19 CAS          3.8060    -0.1330    -0.1450 ca         1 W85      -0.158600
     20 CAQ          4.8920     0.9200    -0.0890 c          1 W85       0.606700
     21 OAC          4.6690     2.1120    -0.2590 o          1 W85      -0.499000
     22 OAO          6.1420     0.4140     0.1680 os         1 W85      -0.443100
     23 CAA          7.2460     1.3340     0.2420 c3         1 W85       0.155900
     24 H2          -4.0090     3.0950     0.0710 hn         1 W85       0.319500
     25 H4          -0.3030     0.6450     1.1950 hc         1 W85       0.056200
     26 H5          -0.7500    -1.0210     1.1720 hc         1 W85       0.056200
     27 H6          -0.4940    -1.0250    -1.3630 hc         1 W85       0.056200
     28 H7          -0.0160     0.6590    -1.2910 hc         1 W85       0.056200
     29 H8           2.2260     1.3000    -0.5520 ha         1 W85       0.135000
     30 H9           0.9550    -2.8160    -0.2920 ha         1 W85       0.148000
     31 H10          3.3000    -3.5120     0.1550 ha         1 W85       0.109000
     32 H11          5.1110    -1.8360     0.2530 ha         1 W85       0.114000
     33 H12          7.0900     2.0690     1.0420 h1         1 W85       0.041700
     34 H13          8.1780     0.7950     0.4520 h1         1 W85       0.041700
     35 H14          7.3700     1.8730    -0.7070 h1         1 W85       0.041700
     36 H15         -5.3660    -0.6410    -0.2960 hn         1 W85       0.489000
@<TRIPOS>BOND
     1     1     2 1   
     2     2     3 1   
     3     2     4 1   
     4     4     5 1   
     5     4    11 2   
     6     5     6 1   
     7     5    36 1   
     8     6     7 2   
     9     6     8 1   
    10     8     9 1   
    11     8    24 1   
    12     9    10 2   
    13     9    11 1   
    14    11    12 1   
    15    12    13 1   
    16    12    25 1   
    17    12    26 1   
    18    13    14 1   
    19    13    27 1   
    20    13    28 1   
    21    14    15 ar  
    22    14    16 ar  
    23    15    19 ar  
    24    15    29 1   
    25    16    17 ar  
    26    16    30 1   
    27    17    18 ar  
    28    17    31 1   
    29    18    19 ar  
    30    18    32 1   
    31    19    20 1   
    32    20    21 2   
    33    20    22 1   
    34    22    23 1   
    35    23    33 1   
    36    23    34 1   
    37    23    35 1   
@<TRIPOS>SUBSTRUCTURE
     1 W85         1 TEMP              0 ****  ****    0 ROOT
