@<TRIPOS>MOLECULE
W86
   42    43     1     0     0
SMALL
No Charge or Current Charge


@<TRIPOS>ATOM
      1 OAB          2.8330     2.6300     0.2970 o          1 W86      -0.688000
      2 CAR          3.9900     2.2980     0.0810 c          1 W86       0.717200
      3 OAF          4.8470     3.1210    -0.2240 o          1 W86      -0.688000
      4 CAV          4.4210     0.8400     0.1680 cc         1 W86       0.027400
      5 NAO          5.7620     0.6010    -0.1330 ns         1 W86      -0.494600
      6 CAX          6.3830    -0.6020    -0.1480 c          1 W86       0.605000
      7 OAD          7.5600    -0.7300    -0.4220 o          1 W86      -0.611000
      8 NAP          5.5810    -1.6430     0.1670 ns         1 W86      -0.472500
      9 CAY          4.2590    -1.6230     0.4920 c          1 W86       0.577200
     10 OAE          3.6750    -2.6650     0.7470 o          1 W86      -0.590000
     11 CAW          3.6320    -0.2650     0.5000 cd         1 W86      -0.290400
     12 CAN          2.1560    -0.2410     0.8750 c3         1 W86       0.015800
     13 CAL          1.2350    -0.3340    -0.3620 c3         1 W86      -0.069400
     14 CAK         -0.2670    -0.3080    -0.0050 c3         1 W86      -0.069400
     15 CAM         -1.1860    -0.4040    -1.2420 c3         1 W86      -0.044100
     16 CAT         -2.6610    -0.3780    -0.8630 ca         1 W86      -0.026300
     17 CAH         -3.3480    -1.5760    -0.5990 ca         1 W86      -0.129500
     18 CAJ         -4.7070    -1.5550    -0.2440 ca         1 W86      -0.055500
     19 CAG         -3.3490     0.8440    -0.7650 ca         1 W86      -0.129500
     20 CAI         -4.7090     0.8710    -0.4100 ca         1 W86      -0.055500
     21 CAU         -5.4060    -0.3310    -0.1460 ca         1 W86      -0.161600
     22 CAS         -6.8690    -0.3280     0.2380 c          1 W86       0.609700
     23 OAC         -7.4970    -1.3530     0.4720 o          1 W86      -0.505000
     24 OAQ         -7.4230     0.9270     0.2970 os         1 W86      -0.438100
     25 CAA         -8.8130     1.0410     0.6530 c3         1 W86       0.154900
     26 H2           6.0170    -2.5500     0.1600 hn         1 W86       0.318500
     27 H4           1.9120    -1.0680     1.5530 hc         1 W86       0.053700
     28 H5           1.9100     0.6560     1.4530 hc         1 W86       0.053700
     29 H6           1.4590     0.4970    -1.0410 hc         1 W86       0.042700
     30 H7           1.4610    -1.2600    -0.9060 hc         1 W86       0.042700
     31 H8          -0.4930    -1.1410     0.6730 hc         1 W86       0.041200
     32 H9          -0.4940     0.6170     0.5390 hc         1 W86       0.041200
     33 H10         -0.9600     0.4250    -1.9240 hc         1 W86       0.050200
     34 H11         -0.9550    -1.3240    -1.7930 hc         1 W86       0.050200
     35 H12         -2.8270    -2.5290    -0.6670 ha         1 W86       0.122000
     36 H13         -5.2170    -2.4960    -0.0450 ha         1 W86       0.125500
     37 H14         -2.8280     1.7780    -0.9620 ha         1 W86       0.122000
     38 H15         -5.2120     1.8330    -0.3430 ha         1 W86       0.125500
     39 H16         -8.9960     0.6250     1.6530 h1         1 W86       0.044033
     40 H17         -9.1200     2.0940     0.6610 h1         1 W86       0.044033
     41 H18         -9.4470     0.5070    -0.0670 h1         1 W86       0.044033
     42 H19          6.3540     1.3910    -0.3740 hn         1 W86       0.488000
@<TRIPOS>BOND
     1     1     2 1   
     2     2     3 1   
     3     2     4 1   
     4     4     5 1   
     5     4    11 2   
     6     5     6 1   
     7     5    42 1   
     8     6     7 2   
     9     6     8 1   
    10     8     9 1   
    11     8    26 1   
    12     9    10 2   
    13     9    11 1   
    14    11    12 1   
    15    12    13 1   
    16    12    27 1   
    17    12    28 1   
    18    13    14 1   
    19    13    29 1   
    20    13    30 1   
    21    14    15 1   
    22    14    31 1   
    23    14    32 1   
    24    15    16 1   
    25    15    33 1   
    26    15    34 1   
    27    16    17 ar  
    28    16    19 ar  
    29    17    18 ar  
    30    17    35 1   
    31    18    21 ar  
    32    18    36 1   
    33    19    20 ar  
    34    19    37 1   
    35    20    21 ar  
    36    20    38 1   
    37    21    22 1   
    38    22    23 2   
    39    22    24 1   
    40    24    25 1   
    41    25    39 1   
    42    25    40 1   
    43    25    41 1   
@<TRIPOS>SUBSTRUCTURE
     1 W86         1 TEMP              0 ****  ****    0 ROOT
