@<TRIPOS>MOLECULE
W86
   42    43     1     0     0
SMALL
abcg2


@<TRIPOS>ATOM
      1 OAB          2.7130     2.5860     0.2290 o          1 W86      -0.688000
      2 CAR          3.9190     2.3200     0.1930 c          1 W86       0.717200
      3 OAF          4.8800     3.1070     0.1130 o          1 W86      -0.688000
      4 CAV          4.3260     0.8340     0.2310 cc         1 W86       0.027400
      5 NAO          5.6520     0.6660    -0.0660 ns         1 W86      -0.494600
      6 CAX          6.3000    -0.5230    -0.1400 c          1 W86       0.605000
      7 OAD          7.4810    -0.6390    -0.4120 o          1 W86      -0.611000
      8 NAP          5.4860    -1.5940     0.1200 ns         1 W86      -0.472500
      9 CAY          4.1430    -1.5580     0.4480 c          1 W86       0.577200
     10 OAE          3.5490    -2.6040     0.6560 o          1 W86      -0.590000
     11 CAW          3.5380    -0.2330     0.5120 cd         1 W86      -0.290400
     12 CAN          2.0760    -0.1890     0.8450 c3         1 W86       0.015800
     13 CAL          1.1900    -0.3770    -0.3870 c3         1 W86      -0.069400
     14 CAK         -0.2920    -0.3450    -0.0450 c3         1 W86      -0.069400
     15 CAM         -1.1820    -0.5470    -1.2750 c3         1 W86      -0.044100
     16 CAT         -2.6380    -0.4740    -0.9220 ca         1 W86      -0.026300
     17 CAH         -3.3660    -1.6260    -0.6320 ca         1 W86      -0.129500
     18 CAJ         -4.6960    -1.5530    -0.2560 ca         1 W86      -0.055500
     19 CAG         -3.2850     0.7570    -0.8250 ca         1 W86      -0.129500
     20 CAI         -4.6140     0.8410    -0.4460 ca         1 W86      -0.055500
     21 CAU         -5.3340    -0.3180    -0.1560 ca         1 W86      -0.161600
     22 CAS         -6.7580    -0.2910     0.2530 c          1 W86       0.609700
     23 OAC         -7.4110    -1.2820     0.4880 o          1 W86      -0.505000
     24 OAQ         -7.2450     0.9370     0.3360 os         1 W86      -0.438100
     25 CAA         -8.6100     1.0820     0.7250 c3         1 W86       0.154900
     26 H2           5.9160    -2.5090     0.0640 hn         1 W86       0.318500
     27 H4           1.8590    -0.9810     1.5650 hc         1 W86       0.053700
     28 H5           1.8270     0.7550     1.3210 hc         1 W86       0.053700
     29 H6           1.4140     0.4130    -1.1090 hc         1 W86       0.042700
     30 H7           1.4340    -1.3270    -0.8720 hc         1 W86       0.042700
     31 H8          -0.5190    -1.1180     0.6960 hc         1 W86       0.041200
     32 H9          -0.5390     0.6140     0.4220 hc         1 W86       0.041200
     33 H10         -0.9430     0.2150    -2.0210 hc         1 W86       0.050200
     34 H11         -0.9580    -1.5160    -1.7260 hc         1 W86       0.050200
     35 H12         -2.8860    -2.5940    -0.7080 ha         1 W86       0.122000
     36 H13         -5.2400    -2.4630    -0.0390 ha         1 W86       0.125500
     37 H14         -2.7410     1.6670    -1.0500 ha         1 W86       0.122000
     38 H15         -5.0820     1.8140    -0.3810 ha         1 W86       0.125500
     39 H16         -8.7870     0.6740     1.7190 h1         1 W86       0.044033
     40 H17         -8.8050     2.1500     0.7350 h1         1 W86       0.044033
     41 H18         -9.2800     0.6000     0.0130 h1         1 W86       0.044033
     42 H19          6.1720     1.5220    -0.2230 hn         1 W86       0.488000
@<TRIPOS>BOND
     1     1     2 1   
     2     2     3 1   
     3     2     4 1   
     4     4     5 1   
     5     4    11 2   
     6     5     6 1   
     7     5    42 1   
     8     6     7 2   
     9     6     8 1   
    10     8     9 1   
    11     8    26 1   
    12     9    10 2   
    13     9    11 1   
    14    11    12 1   
    15    12    13 1   
    16    12    27 1   
    17    12    28 1   
    18    13    14 1   
    19    13    29 1   
    20    13    30 1   
    21    14    15 1   
    22    14    31 1   
    23    14    32 1   
    24    15    16 1   
    25    15    33 1   
    26    15    34 1   
    27    16    17 ar  
    28    16    19 ar  
    29    17    18 ar  
    30    17    35 1   
    31    18    21 ar  
    32    18    36 1   
    33    19    20 ar  
    34    19    37 1   
    35    20    21 ar  
    36    20    38 1   
    37    21    22 1   
    38    22    23 2   
    39    22    24 1   
    40    24    25 1   
    41    25    39 1   
    42    25    40 1   
    43    25    41 1   
@<TRIPOS>SUBSTRUCTURE
     1 W86         1 TEMP              0 ****  ****    0 ROOT
