@<TRIPOS>MOLECULE
W87
   48    50     1     0     0
SMALL
No Charge or Current Charge


@<TRIPOS>ATOM
      1 OAB         -5.9800    -2.9720    -0.0740 o          1 W87      -0.688000
      2 CAT         -5.0810    -2.1790     0.1860 c          1 W87       0.717200
      3 OAF         -3.9460    -2.5600     0.4340 o          1 W87      -0.688000
      4 CAX         -5.4300    -0.6970     0.1780 cc         1 W87       0.025400
      5 NAQ         -6.7540    -0.4040    -0.1490 ns         1 W87      -0.494600
      6 CAZ         -7.3070     0.8280    -0.2460 c          1 W87       0.605000
      7 OAD         -8.4730     1.0030    -0.5390 o          1 W87      -0.611000
      8 NAR         -6.4490     1.8410     0.0100 ns         1 W87      -0.472500
      9 CBA         -5.1320     1.7690     0.3480 c          1 W87       0.577200
     10 OAE         -4.4930     2.7900     0.5430 o          1 W87      -0.590000
     11 CAY         -4.5830     0.3810     0.4470 cd         1 W87      -0.290400
     12 CAP         -3.1130     0.2990     0.8370 c3         1 W87       0.016800
     13 CAN         -2.1810     0.2630    -0.3950 c3         1 W87      -0.069400
     14 CAM         -0.6840     0.1780    -0.0230 c3         1 W87      -0.069400
     15 CAO          0.2460     0.1440    -1.2540 c3         1 W87      -0.037100
     16 CAV          1.7150     0.0630    -0.8590 ca         1 W87      -0.055300
     17 CAL          2.3210    -1.1840    -0.6340 ca         1 W87      -0.103000
     18 CAI          2.4780     1.2330    -0.7160 ca         1 W87      -0.091000
     19 CAK          3.8320     1.1620    -0.3460 ca         1 W87      -0.107000
     20 CBC          4.4510    -0.0870    -0.1040 ca         1 W87       0.003000
     21 CBB          3.6780    -1.2650    -0.2660 ca         1 W87      -0.046000
     22 CAJ          4.2580    -2.5300    -0.0670 ca         1 W87      -0.063000
     23 CAG          5.6100    -2.6350     0.2870 ca         1 W87      -0.140000
     24 CAH          6.3840    -1.4780     0.4540 ca         1 W87      -0.059000
     25 CAW          5.8200    -0.1950     0.2720 ca         1 W87      -0.126600
     26 CAU          6.7010     1.0090     0.5020 c          1 W87       0.605700
     27 OAC          6.3700     1.9630     1.1950 o          1 W87      -0.487000
     28 OAS          7.9730     0.8380     0.0120 os         1 W87      -0.443100
     29 CAA          8.9320     1.8880     0.2310 c3         1 W87       0.152900
     30 H2          -6.8340     2.7690    -0.0580 hn         1 W87       0.318500
     31 H4          -2.8270     1.1520     1.4650 hc         1 W87       0.052700
     32 H5          -2.9200    -0.5710     1.4730 hc         1 W87       0.052700
     33 H6          -2.4460    -0.5960    -1.0220 hc         1 W87       0.043200
     34 H7          -2.3520     1.1630    -0.9980 hc         1 W87       0.043200
     35 H8          -0.4170     1.0380     0.6040 hc         1 W87       0.040700
     36 H9          -0.5120    -0.7220     0.5810 hc         1 W87       0.040700
     37 H10         -0.0210    -0.7130    -1.8840 hc         1 W87       0.047700
     38 H11          0.0680     1.0380    -1.8640 hc         1 W87       0.047700
     39 H12          1.7350    -2.0930    -0.7490 ha         1 W87       0.119000
     40 H13          2.0220     2.2050    -0.8920 ha         1 W87       0.118000
     41 H14          4.3840     2.0930    -0.2640 ha         1 W87       0.130000
     42 H15          3.6650    -3.4330    -0.1920 ha         1 W87       0.116000
     43 H16          6.0570    -3.6150     0.4380 ha         1 W87       0.112000
     44 H17          7.4290    -1.5800     0.7420 ha         1 W87       0.118000
     45 H18          9.0920     2.0560     1.3040 h1         1 W87       0.045033
     46 H19          9.8970     1.6230    -0.2190 h1         1 W87       0.045033
     47 H20          8.5920     2.8290    -0.2220 h1         1 W87       0.045033
     48 H21         -7.3880    -1.1740    -0.3460 hn         1 W87       0.489000
@<TRIPOS>BOND
     1     1     2 1   
     2     2     3 1   
     3     2     4 1   
     4     4     5 1   
     5     4    11 2   
     6     5     6 1   
     7     5    48 1   
     8     6     7 2   
     9     6     8 1   
    10     8     9 1   
    11     8    30 1   
    12     9    10 2   
    13     9    11 1   
    14    11    12 1   
    15    12    13 1   
    16    12    31 1   
    17    12    32 1   
    18    13    14 1   
    19    13    33 1   
    20    13    34 1   
    21    14    15 1   
    22    14    35 1   
    23    14    36 1   
    24    15    16 1   
    25    15    37 1   
    26    15    38 1   
    27    16    17 ar  
    28    16    18 ar  
    29    17    21 ar  
    30    17    39 1   
    31    18    19 ar  
    32    18    40 1   
    33    19    20 ar  
    34    19    41 1   
    35    20    21 ar  
    36    20    25 ar  
    37    21    22 ar  
    38    22    23 ar  
    39    22    42 1   
    40    23    24 ar  
    41    23    43 1   
    42    24    25 ar  
    43    24    44 1   
    44    25    26 1   
    45    26    27 2   
    46    26    28 1   
    47    28    29 1   
    48    29    45 1   
    49    29    46 1   
    50    29    47 1   
@<TRIPOS>SUBSTRUCTURE
     1 W87         1 TEMP              0 ****  ****    0 ROOT
