@<TRIPOS>MOLECULE
W87
   48    50     1     0     0
SMALL
abcg2


@<TRIPOS>ATOM
      1 OAB         -5.9680    -2.7590     0.8080 o          1 W87      -0.688000
      2 CAT         -4.9780    -2.0060     0.7540 c          1 W87       0.717200
      3 OAF         -3.7870    -2.2970     0.9050 o          1 W87      -0.688000
      4 CAX         -5.3230    -0.5360     0.4390 cc         1 W87       0.025400
      5 NAQ         -6.6460    -0.3870     0.1220 ns         1 W87      -0.494600
      6 CAZ         -7.2480     0.7790    -0.2210 c          1 W87       0.605000
      7 OAD         -8.4300     0.8800    -0.4940 o          1 W87      -0.611000
      8 NAR         -6.3860     1.8430    -0.2340 ns         1 W87      -0.472500
      9 CBA         -5.0360     1.8250     0.0660 c          1 W87       0.577200
     10 OAE         -4.3940     2.8610    -0.0040 o          1 W87      -0.590000
     11 CAY         -4.4860     0.5300     0.4480 cd         1 W87      -0.290400
     12 CAP         -3.0210     0.5010     0.7740 c3         1 W87       0.016800
     13 CAN         -2.1500     0.2440    -0.4550 c3         1 W87      -0.069400
     14 CAM         -0.6680     0.1980    -0.1100 c3         1 W87      -0.069400
     15 CAO          0.2130    -0.0530    -1.3360 c3         1 W87      -0.037100
     16 CAV          1.6710    -0.1040    -0.9820 ca         1 W87      -0.055300
     17 CAL          2.3600    -1.2840    -0.9100 ca         1 W87      -0.103000
     18 CAI          2.3680     1.0880    -0.6730 ca         1 W87      -0.091000
     19 CAK          3.6800     1.0820    -0.2910 ca         1 W87      -0.107000
     20 CBC          4.4070    -0.1320    -0.1910 ca         1 W87       0.003000
     21 CBB          3.7210    -1.3310    -0.5290 ca         1 W87      -0.046000
     22 CAJ          4.4040    -2.5670    -0.4870 ca         1 W87      -0.063000
     23 CAG          5.7240    -2.6250    -0.1410 ca         1 W87      -0.140000
     24 CAH          6.4160    -1.4460     0.1820 ca         1 W87      -0.059000
     25 CAW          5.7840    -0.2230     0.1760 ca         1 W87      -0.126600
     26 CAU          6.5500     0.9720     0.6220 c          1 W87       0.605700
     27 OAC          6.0800     1.9080     1.2220 o          1 W87      -0.487000
     28 OAS          7.8330     0.8850     0.3060 os         1 W87      -0.443100
     29 CAA          8.6950     1.9310     0.7560 c3         1 W87       0.152900
     30 H2          -6.7810     2.7370    -0.4990 hn         1 W87       0.318500
     31 H4          -2.7450     1.4640     1.2110 hc         1 W87       0.052700
     32 H5          -2.8180    -0.2600     1.5220 hc         1 W87       0.052700
     33 H6          -2.4500    -0.7060    -0.9030 hc         1 W87       0.043200
     34 H7          -2.3280     1.0220    -1.2040 hc         1 W87       0.043200
     35 H8          -0.3700     1.1390     0.3640 hc         1 W87       0.040700
     36 H9          -0.4890    -0.5900     0.6280 hc         1 W87       0.040700
     37 H10         -0.0840    -0.9930    -1.8090 hc         1 W87       0.047700
     38 H11          0.0390     0.7380    -2.0720 hc         1 W87       0.047700
     39 H12          1.8640    -2.2180    -1.1540 ha         1 W87       0.119000
     40 H13          1.8460     2.0350    -0.7490 ha         1 W87       0.118000
     41 H14          4.1580     2.0240    -0.0710 ha         1 W87       0.130000
     42 H15          3.8640    -3.4720    -0.7370 ha         1 W87       0.116000
     43 H16          6.2440    -3.5730    -0.1080 ha         1 W87       0.112000
     44 H17          7.4580    -1.5200     0.4600 ha         1 W87       0.118000
     45 H18          8.7040     1.9990     1.8440 h1         1 W87       0.045033
     46 H19          9.6880     1.6710     0.4030 h1         1 W87       0.045033
     47 H20          8.4020     2.8940     0.3380 h1         1 W87       0.045033
     48 H21         -7.2000    -1.2350     0.1740 hn         1 W87       0.489000
@<TRIPOS>BOND
     1     1     2 1   
     2     2     3 1   
     3     2     4 1   
     4     4     5 1   
     5     4    11 2   
     6     5     6 1   
     7     5    48 1   
     8     6     7 2   
     9     6     8 1   
    10     8     9 1   
    11     8    30 1   
    12     9    10 2   
    13     9    11 1   
    14    11    12 1   
    15    12    13 1   
    16    12    31 1   
    17    12    32 1   
    18    13    14 1   
    19    13    33 1   
    20    13    34 1   
    21    14    15 1   
    22    14    35 1   
    23    14    36 1   
    24    15    16 1   
    25    15    37 1   
    26    15    38 1   
    27    16    17 ar  
    28    16    18 ar  
    29    17    21 ar  
    30    17    39 1   
    31    18    19 ar  
    32    18    40 1   
    33    19    20 ar  
    34    19    41 1   
    35    20    21 ar  
    36    20    25 ar  
    37    21    22 ar  
    38    22    23 ar  
    39    22    42 1   
    40    23    24 ar  
    41    23    43 1   
    42    24    25 ar  
    43    24    44 1   
    44    25    26 1   
    45    26    27 2   
    46    26    28 1   
    47    28    29 1   
    48    29    45 1   
    49    29    46 1   
    50    29    47 1   
@<TRIPOS>SUBSTRUCTURE
     1 W87         1 TEMP              0 ****  ****    0 ROOT
