@<TRIPOS>MOLECULE
W88
   44    46     1     0     0
SMALL
No Charge or Current Charge


@<TRIPOS>ATOM
      1 OAB          3.4390     2.6280     0.2020 o          1 W88      -0.687000
      2 CAT          4.6170     2.3600     0.0140 c          1 W88       0.715200
      3 OAF          5.4260     3.2230    -0.3140 o          1 W88      -0.687000
      4 CAX          5.1370     0.9380     0.1700 cc         1 W88       0.018400
      5 NAQ          6.4940     0.7720    -0.1020 ns         1 W88      -0.494600
      6 CAY          7.1900    -0.3890    -0.0560 c          1 W88       0.604000
      7 OAC          8.3770    -0.4540    -0.3090 o          1 W88      -0.623000
      8 NAR          6.4490    -1.4650     0.2920 ns         1 W88      -0.472500
      9 CAZ          5.1230    -1.5150     0.5980 c          1 W88       0.575200
     10 OAD          4.6010    -2.5790     0.8900 o          1 W88      -0.586000
     11 CAW          4.4120    -0.1990     0.5380 cd         1 W88      -0.278400
     12 CAP          2.9310    -0.2530     0.8910 c3         1 W88       0.011800
     13 CAN          2.0390    -0.4590    -0.3520 c3         1 W88      -0.068400
     14 CAM          0.5320    -0.5190    -0.0170 c3         1 W88      -0.071400
     15 CAO         -0.3580    -0.7290    -1.2600 c3         1 W88      -0.026100
     16 CAU         -1.8370    -0.7910    -0.9020 ca         1 W88      -0.093300
     17 CAK         -2.6000     0.3900    -0.8280 ca         1 W88      -0.098000
     18 CBA         -3.9660     0.3360    -0.4930 ca         1 W88      -0.041000
     19 CAJ         -4.7280     1.5150    -0.4200 ca         1 W88      -0.151000
     20 CAH         -6.0920     1.4580    -0.0850 ca         1 W88      -0.066000
     21 CAV         -6.7210     0.2190     0.1840 ca         1 W88      -0.138600
     22 CAS         -8.1970     0.1600     0.5460 c          1 W88       0.714600
     23 OAE         -8.8290     1.2060     0.6000 o          1 W88      -0.728000
     24 OAA         -8.7030    -0.9300     0.7700 o          1 W88      -0.728000
     25 CAL         -5.9440    -0.9620     0.1080 ca         1 W88      -0.094000
     26 CBB         -4.5780    -0.9070    -0.2270 ca         1 W88      -0.051000
     27 CAI         -3.8150    -2.0880    -0.2990 ca         1 W88      -0.102000
     28 CAG         -2.4520    -2.0290    -0.6340 ca         1 W88      -0.127000
     29 H2           6.9410    -2.3430     0.3300 hn         1 W88       0.314500
     30 H4           2.7290    -1.0630     1.6030 hc         1 W88       0.054200
     31 H5           2.6190     0.6500     1.4260 hc         1 W88       0.054200
     32 H6           2.2180     0.3560    -1.0640 hc         1 W88       0.038200
     33 H7           2.3340    -1.3890    -0.8540 hc         1 W88       0.038200
     34 H8           0.3520    -1.3360     0.6930 hc         1 W88       0.040700
     35 H9           0.2360     0.4110     0.4830 hc         1 W88       0.040700
     36 H10         -0.1790     0.0860    -1.9730 hc         1 W88       0.035200
     37 H11         -0.0550    -1.6520    -1.7690 hc         1 W88       0.035200
     38 H12         -2.1300     1.3500    -1.0300 ha         1 W88       0.103000
     39 H13         -4.2650     2.4780    -0.6230 ha         1 W88       0.091000
     40 H14         -6.6600     2.3850    -0.0350 ha         1 W88       0.124000
     41 H16         -6.4020    -1.9280     0.3100 ha         1 W88       0.124000
     42 H17         -4.2770    -3.0520    -0.0950 ha         1 W88       0.099000
     43 H18         -1.8720    -2.9480    -0.6840 ha         1 W88       0.094000
     44 H19          7.0410     1.5860    -0.3690 hn         1 W88       0.486000
@<TRIPOS>BOND
     1     1     2 1   
     2     2     3 1   
     3     2     4 1   
     4     4     5 1   
     5     4    11 2   
     6     5     6 1   
     7     5    44 1   
     8     6     7 2   
     9     6     8 1   
    10     8     9 1   
    11     8    29 1   
    12     9    10 2   
    13     9    11 1   
    14    11    12 1   
    15    12    13 1   
    16    12    30 1   
    17    12    31 1   
    18    13    14 1   
    19    13    32 1   
    20    13    33 1   
    21    14    15 1   
    22    14    34 1   
    23    14    35 1   
    24    15    16 1   
    25    15    36 1   
    26    15    37 1   
    27    16    17 ar  
    28    16    28 ar  
    29    17    18 ar  
    30    17    38 1   
    31    18    19 ar  
    32    18    26 ar  
    33    19    20 ar  
    34    19    39 1   
    35    20    21 ar  
    36    20    40 1   
    37    21    22 1   
    38    21    25 ar  
    39    22    23 1   
    40    22    24 1   
    41    25    26 ar  
    42    25    41 1   
    43    26    27 ar  
    44    27    28 ar  
    45    27    42 1   
    46    28    43 1   
@<TRIPOS>SUBSTRUCTURE
     1 W88         1 TEMP              0 ****  ****    0 ROOT
