@<TRIPOS>MOLECULE
W88
   44    46     1     0     0
SMALL
abcg2


@<TRIPOS>ATOM
      1 OAB          3.3840     2.5440     0.3670 o          1 W88      -0.687000
      2 CAT          4.6030     2.3440     0.3210 c          1 W88       0.715200
      3 OAF          5.5200     3.1850     0.2740 o          1 W88      -0.687000
      4 CAX          5.0900     0.8820     0.2930 cc         1 W88       0.018400
      5 NAQ          6.4220     0.8020    -0.0120 ns         1 W88      -0.494600
      6 CAY          7.1320    -0.3460    -0.1490 c          1 W88       0.604000
      7 OAC          8.3150    -0.3840    -0.4370 o          1 W88      -0.623000
      8 NAR          6.3810    -1.4710     0.0690 ns         1 W88      -0.472500
      9 CAZ          5.0400    -1.5230     0.4020 c          1 W88       0.575200
     10 OAD          4.5050    -2.6080     0.5670 o          1 W88      -0.586000
     11 CAW          4.3630    -0.2370     0.5280 cd         1 W88      -0.278400
     12 CAP          2.9030    -0.2890     0.8710 c3         1 W88       0.011800
     13 CAN          2.0210    -0.4750    -0.3640 c3         1 W88      -0.068400
     14 CAM          0.5400    -0.5410    -0.0160 c3         1 W88      -0.071400
     15 CAO         -0.3440    -0.7260    -1.2510 c3         1 W88      -0.026100
     16 CAU         -1.8040    -0.7670    -0.9040 ca         1 W88      -0.093300
     17 CAK         -2.5870     0.3580    -0.9690 ca         1 W88      -0.098000
     18 CBA         -3.9510     0.3330    -0.5970 ca         1 W88      -0.041000
     19 CAJ         -4.7720     1.4850    -0.6560 ca         1 W88      -0.151000
     20 CAH         -6.0870     1.4260    -0.2870 ca         1 W88      -0.066000
     21 CAV         -6.6700     0.2180     0.1650 ca         1 W88      -0.138600
     22 CAS         -8.1360     0.1790     0.5780 c          1 W88       0.714600
     23 OAE         -8.7740     1.2430     0.4560 o          1 W88      -0.728000
     24 OAA         -8.5720    -0.9070     1.0040 o          1 W88      -0.728000
     25 CAL         -5.8880    -0.9080     0.2260 ca         1 W88      -0.094000
     26 CBB         -4.5250    -0.8830    -0.1480 ca         1 W88      -0.051000
     27 CAI         -3.7050    -2.0350    -0.0880 ca         1 W88      -0.102000
     28 CAG         -2.3890    -1.9760    -0.4530 ca         1 W88      -0.127000
     29 H2           6.8600    -2.3560    -0.0340 hn         1 W88       0.314500
     30 H4           2.7360    -1.1220     1.5570 hc         1 W88       0.054200
     31 H5           2.6060     0.6180     1.3890 hc         1 W88       0.054200
     32 H6           2.1960     0.3540    -1.0530 hc         1 W88       0.038200
     33 H7           2.3140    -1.3900    -0.8880 hc         1 W88       0.038200
     34 H8           0.3610    -1.3590     0.6900 hc         1 W88       0.040700
     35 H9           0.2440     0.3800     0.4960 hc         1 W88       0.040700
     36 H10         -0.1540     0.0900    -1.9530 hc         1 W88       0.035200
     37 H11         -0.0590    -1.6500    -1.7620 hc         1 W88       0.035200
     38 H12         -2.1600     1.2940    -1.3140 ha         1 W88       0.103000
     39 H13         -4.3400     2.4190    -0.9960 ha         1 W88       0.091000
     40 H14         -6.7020     2.3140    -0.3360 ha         1 W88       0.124000
     41 H16         -6.3170    -1.8410     0.5680 ha         1 W88       0.124000
     42 H17         -4.1360    -2.9700     0.2480 ha         1 W88       0.099000
     43 H18         -1.7760    -2.8690    -0.4030 ha         1 W88       0.094000
     44 H19          6.8890     1.6920    -0.1460 hn         1 W88       0.486000
@<TRIPOS>BOND
     1     1     2 1   
     2     2     3 1   
     3     2     4 1   
     4     4     5 1   
     5     4    11 2   
     6     5     6 1   
     7     5    44 1   
     8     6     7 2   
     9     6     8 1   
    10     8     9 1   
    11     8    29 1   
    12     9    10 2   
    13     9    11 1   
    14    11    12 1   
    15    12    13 1   
    16    12    30 1   
    17    12    31 1   
    18    13    14 1   
    19    13    32 1   
    20    13    33 1   
    21    14    15 1   
    22    14    34 1   
    23    14    35 1   
    24    15    16 1   
    25    15    36 1   
    26    15    37 1   
    27    16    17 ar  
    28    16    28 ar  
    29    17    18 ar  
    30    17    38 1   
    31    18    19 ar  
    32    18    26 ar  
    33    19    20 ar  
    34    19    39 1   
    35    20    21 ar  
    36    20    40 1   
    37    21    22 1   
    38    21    25 ar  
    39    22    23 1   
    40    22    24 1   
    41    25    26 ar  
    42    25    41 1   
    43    26    27 ar  
    44    27    28 ar  
    45    27    42 1   
    46    28    43 1   
@<TRIPOS>SUBSTRUCTURE
     1 W88         1 TEMP              0 ****  ****    0 ROOT
