@<TRIPOS>MOLECULE
W89
   60    64     1     0     0
SMALL
No Charge or Current Charge


@<TRIPOS>ATOM
      1 C1          19.5710    19.2000    35.3070 c3         1 W89       0.218900
      2 C2          21.1600    18.4460    36.9720 ce         1 W89       0.561500
      3 C3          22.4430    17.7200    37.2680 ca         1 W89      -0.150900
      4 C7          24.5440    17.5330    38.5190 ca         1 W89      -0.117500
      5 C8          23.3230    18.1850    38.2740 ca         1 W89      -0.075000
      6 C9          20.5160    19.2590    38.0620 ca         1 W89      -0.223900
      7 C10         20.3810    18.6720    39.3410 ca         1 W89      -0.053000
      8 C11         19.8310    19.3950    40.4110 ca         1 W89      -0.135000
      9 C12         19.4070    20.7170    40.2200 ca         1 W89      -0.063000
     10 C13         19.5170    21.3070    38.9520 ca         1 W89      -0.153000
     11 C14         20.0450    20.5840    37.8670 ca         1 W89       0.002000
     12 C15         20.0090    20.7040    35.3470 c          1 W89       0.553000
     13 C16         18.0910    18.4100    31.8510 ca         1 W89      -0.137600
     14 C19         17.9050    17.4880    29.1780 ca         1 W89      -0.100000
     15 C20         18.4740    16.6740    30.1680 ca         1 W89      -0.096000
     16 C21         18.5720    17.1070    31.5070 ca         1 W89      -0.058300
     17 C22         19.1020    16.0760    32.5180 c3         1 W89       0.205100
     18 C24         22.9550    16.2830    32.0630 c6         1 W89       0.152600
     19 O1          20.2280    21.3860    34.3490 o          1 W89      -0.512000
     20 N2          20.1070    21.2370    36.6150 ns         1 W89      -0.158000
     21 C6          24.9150    16.4180    37.7500 ca         1 W89      -0.094000
     22 C5          24.0670    15.9630    36.7290 ca         1 W89      -0.117500
     23 C4          22.8460    16.6120    36.4830 ca         1 W89      -0.075000
     24 N1          20.6190    18.3080    35.8000 n2         1 W89      -0.617900
     25 N           19.3100    18.7520    33.9490 ns         1 W89      -0.476900
     26 C           18.1740    19.0170    33.2350 c          1 W89       0.615700
     27 O           17.2820    19.7160    33.6980 o          1 W89      -0.597100
     28 C18         17.4060    18.7510    29.5190 ca         1 W89      -0.112000
     29 C17         17.4940    19.2030    30.8440 ca         1 W89      -0.073000
     30 N3          20.5140    15.6740    32.2940 n3         1 W89      -0.717600
     31 C26         20.9340    14.5370    33.1710 c6         1 W89       0.121800
     32 C25         22.3950    14.0840    32.8730 c6         1 W89       0.152600
     33 O2          23.3030    15.2080    32.9680 os         1 W89      -0.463000
     34 C23         21.5110    16.7880    32.3580 c6         1 W89       0.121800
     35 H1          18.6460    19.0880    35.8880 h2         1 W89       0.096700
     36 H2          25.2060    17.8980    39.3010 ha         1 W89       0.121000
     37 H3          23.0700    19.0610    38.8680 ha         1 W89       0.124000
     38 H4          20.7140    17.6490    39.5110 ha         1 W89       0.127000
     39 H5          19.7410    18.9320    41.3910 ha         1 W89       0.123000
     40 H6          18.9870    21.2810    41.0500 ha         1 W89       0.121000
     41 H7          19.1740    22.3300    38.8090 ha         1 W89       0.123000
     42 H8          17.8380    17.1330    28.1520 ha         1 W89       0.116000
     43 H9          18.8330    15.6830    29.8960 ha         1 W89       0.127000
     44 H10         18.9480    16.4020    33.5520 h1         1 W89       0.046700
     45 H11         18.4680    15.1850    32.4110 h1         1 W89       0.046700
     46 H13         23.6720    17.1060    32.1890 h1         1 W89       0.052700
     47 H14         20.2880    22.2320    36.6540 hn         1 W89       0.161000
     48 H15         25.8620    15.9170    37.9380 ha         1 W89       0.115000
     49 H16         24.3580    15.1080    36.1220 ha         1 W89       0.121000
     50 H17         22.2100    16.2420    35.6820 ha         1 W89       0.124000
     51 H18         20.0040    18.1700    33.5050 hn         1 W89       0.336500
     52 H19         16.9550    19.3820    28.7560 ha         1 W89       0.118000
     53 H20         17.1120    20.1930    31.0870 ha         1 W89       0.128000
     54 H22         20.8630    14.8250    34.2300 h1         1 W89       0.045950
     55 H23         20.2650    13.6760    33.0270 h1         1 W89       0.045950
     56 H24         22.4550    13.6550    31.8620 h1         1 W89       0.052700
     57 H25         22.7020    13.3110    33.5920 h1         1 W89       0.052700
     58 H26         21.5140    17.2440    33.3580 h1         1 W89       0.045950
     59 H27         21.2610    17.5780    31.6340 h1         1 W89       0.045950
     60 H12         23.0220    15.9230    31.0260 h1         1 W89       0.052700
@<TRIPOS>BOND
     1     1    12 1   
     2     1    24 1   
     3     1    25 1   
     4     1    35 1   
     5     2     3 1   
     6     2     6 1   
     7     2    24 2   
     8     3     5 ar  
     9     3    23 ar  
    10     4     5 ar  
    11     4    21 ar  
    12     4    36 1   
    13     5    37 1   
    14     6     7 ar  
    15     6    11 ar  
    16     7     8 ar  
    17     7    38 1   
    18     8     9 ar  
    19     8    39 1   
    20     9    10 ar  
    21     9    40 1   
    22    10    11 ar  
    23    10    41 1   
    24    11    20 1   
    25    12    19 2   
    26    12    20 1   
    27    13    16 ar  
    28    13    26 1   
    29    13    29 ar  
    30    14    15 ar  
    31    14    28 ar  
    32    14    42 1   
    33    15    16 ar  
    34    15    43 1   
    35    16    17 1   
    36    17    30 1   
    37    17    44 1   
    38    17    45 1   
    39    18    33 1   
    40    18    34 1   
    41    18    46 1   
    42    18    60 1   
    43    20    47 1   
    44    21    22 ar  
    45    21    48 1   
    46    22    23 ar  
    47    22    49 1   
    48    23    50 1   
    49    25    26 1   
    50    25    51 1   
    51    26    27 2   
    52    28    29 ar  
    53    28    52 1   
    54    29    53 1   
    55    30    31 1   
    56    30    34 1   
    57    31    32 1   
    58    31    54 1   
    59    31    55 1   
    60    32    33 1   
    61    32    56 1   
    62    32    57 1   
    63    34    58 1   
    64    34    59 1   
@<TRIPOS>SUBSTRUCTURE
     1 W89         1 TEMP              0 ****  ****    0 ROOT
