@<TRIPOS>MOLECULE
W89
   60    64     1     0     0
SMALL
abcg2


@<TRIPOS>ATOM
      1 C1          19.8380    19.5580    35.1800 c3         1 W89       0.218900
      2 C2          21.3660    18.7660    36.7820 ce         1 W89       0.561500
      3 C3          22.6050    18.0120    37.1040 ca         1 W89      -0.150900
      4 C7          24.5840    17.6680    38.4490 ca         1 W89      -0.117500
      5 C8          23.4080    18.3630    38.1930 ca         1 W89      -0.075000
      6 C9          20.5450    19.2860    37.8950 ca         1 W89      -0.223900
      7 C10         20.3770    18.5180    39.0570 ca         1 W89      -0.053000
      8 C11         19.6580    18.9920    40.1380 ca         1 W89      -0.135000
      9 C12         19.1100    20.2740    40.0900 ca         1 W89      -0.063000
     10 C13         19.2550    21.0490    38.9540 ca         1 W89      -0.153000
     11 C14         19.9500    20.5610    37.8430 ca         1 W89       0.002000
     12 C15         19.9800    21.0690    35.4140 c          1 W89       0.553000
     13 C16         18.2620    18.4180    31.9490 ca         1 W89      -0.137600
     14 C19         18.0570    17.4940    29.3350 ca         1 W89      -0.100000
     15 C20         18.5180    16.6560    30.3400 ca         1 W89      -0.096000
     16 C21         18.6340    17.1010    31.6590 ca         1 W89      -0.058300
     17 C22         19.1010    16.1350    32.7240 c3         1 W89       0.205100
     18 C24         22.7810    15.8090    31.9950 c6         1 W89       0.152600
     19 O1          20.0130    21.8940    34.5190 o          1 W89      -0.512000
     20 N2          20.0750    21.4090    36.7290 ns         1 W89      -0.158000
     21 C6          24.9620    16.6070    37.6320 ca         1 W89      -0.094000
     22 C5          24.1620    16.2460    36.5510 ca         1 W89      -0.117500
     23 C4          22.9940    16.9480    36.2860 ca         1 W89      -0.075000
     24 N1          21.0800    18.9180    35.5420 n2         1 W89      -0.617900
     25 N           19.5580    19.2410    33.8050 ns         1 W89      -0.476900
     26 C           18.3220    18.9590    33.3500 c          1 W89       0.615700
     27 O           17.3060    19.1280    34.0220 o          1 W89      -0.597100
     28 C18         17.6860    18.8030    29.6360 ca         1 W89      -0.112000
     29 C17         17.7820    19.2580    30.9420 ca         1 W89      -0.073000
     30 N3          20.3930    15.5240    32.4120 n3         1 W89      -0.717600
     31 C26         20.7260    14.4920    33.3920 c6         1 W89       0.121800
     32 C25         22.0490    13.8380    33.0390 c6         1 W89       0.152600
     33 O2          23.0980    14.8020    32.9540 os         1 W89      -0.463000
     34 C23         21.4760    16.5030    32.3350 c6         1 W89       0.121800
     35 H1          18.9920    19.2080    35.7820 h2         1 W89       0.096700
     36 H2          25.2050    17.9560    39.2880 ha         1 W89       0.121000
     37 H3          23.1220    19.1880    38.8310 ha         1 W89       0.124000
     38 H4          20.8240    17.5350    39.0970 ha         1 W89       0.127000
     39 H5          19.5310    18.3760    41.0180 ha         1 W89       0.123000
     40 H6          18.5600    20.6650    40.9360 ha         1 W89       0.121000
     41 H7          18.8230    22.0410    38.9050 ha         1 W89       0.123000
     42 H8          17.9790    17.1270    28.3200 ha         1 W89       0.116000
     43 H9          18.7990    15.6360    30.1080 ha         1 W89       0.127000
     44 H10         19.1240    16.6280    33.7060 h1         1 W89       0.046700
     45 H11         18.3730    15.3230    32.8020 h1         1 W89       0.046700
     46 H13         23.6060    16.5220    32.0050 h1         1 W89       0.052700
     47 H14         20.0350    22.4040    36.9120 hn         1 W89       0.161000
     48 H15         25.8740    16.0620    37.8390 ha         1 W89       0.115000
     49 H16         24.4450    15.4170    35.9150 ha         1 W89       0.121000
     50 H17         22.3670    16.6690    35.4520 ha         1 W89       0.124000
     51 H18         20.3530    19.1070    33.1990 hn         1 W89       0.336500
     52 H19         17.3240    19.4620    28.8570 ha         1 W89       0.118000
     53 H20         17.4930    20.2720    31.1900 ha         1 W89       0.128000
     54 H22         20.7890    14.9160    34.4090 h1         1 W89       0.045950
     55 H23         19.9370    13.7360    33.3950 h1         1 W89       0.045950
     56 H24         21.9590    13.3110    32.0810 h1         1 W89       0.052700
     57 H25         22.3400    13.1250    33.8100 h1         1 W89       0.052700
     58 H26         21.5940    17.0420    33.2880 h1         1 W89       0.045950
     59 H27         21.2460    17.2380    31.5620 h1         1 W89       0.045950
     60 H12         22.7140    15.3560    30.9970 h1         1 W89       0.052700
@<TRIPOS>BOND
     1     1    12 1   
     2     1    24 1   
     3     1    25 1   
     4     1    35 1   
     5     2     3 1   
     6     2     6 1   
     7     2    24 2   
     8     3     5 ar  
     9     3    23 ar  
    10     4     5 ar  
    11     4    21 ar  
    12     4    36 1   
    13     5    37 1   
    14     6     7 ar  
    15     6    11 ar  
    16     7     8 ar  
    17     7    38 1   
    18     8     9 ar  
    19     8    39 1   
    20     9    10 ar  
    21     9    40 1   
    22    10    11 ar  
    23    10    41 1   
    24    11    20 1   
    25    12    19 2   
    26    12    20 1   
    27    13    16 ar  
    28    13    26 1   
    29    13    29 ar  
    30    14    15 ar  
    31    14    28 ar  
    32    14    42 1   
    33    15    16 ar  
    34    15    43 1   
    35    16    17 1   
    36    17    30 1   
    37    17    44 1   
    38    17    45 1   
    39    18    33 1   
    40    18    34 1   
    41    18    46 1   
    42    18    60 1   
    43    20    47 1   
    44    21    22 ar  
    45    21    48 1   
    46    22    23 ar  
    47    22    49 1   
    48    23    50 1   
    49    25    26 1   
    50    25    51 1   
    51    26    27 2   
    52    28    29 ar  
    53    28    52 1   
    54    29    53 1   
    55    30    31 1   
    56    30    34 1   
    57    31    32 1   
    58    31    54 1   
    59    31    55 1   
    60    32    33 1   
    61    32    56 1   
    62    32    57 1   
    63    34    58 1   
    64    34    59 1   
@<TRIPOS>SUBSTRUCTURE
     1 W89         1 TEMP              0 ****  ****    0 ROOT
