@<TRIPOS>MOLECULE
W8A
   26    26     1     0     0
SMALL
No Charge or Current Charge


@<TRIPOS>ATOM
      1 C01        -44.2780   -28.0910     1.5460 c3         1 W8A      -0.065100
      2 C02        -44.6790   -29.5510     1.8580 c3         1 W8A       0.012300
      3 C04        -44.5840   -32.3360     1.0730 c3         1 W8A      -0.067400
      4 C05        -43.8680   -32.7180     2.3930 c          1 W8A       0.719000
      5 C08        -46.1890   -29.6600     2.2390 c          1 W8A       0.634100
      6 C11        -48.0680   -29.4690     3.8670 c5         1 W8A       0.082000
      7 C12        -48.1340   -29.0500     5.3750 c5         1 W8A       0.085000
      8 C14        -45.8990   -28.9300     4.6350 c          1 W8A       0.624000
      9 N10        -46.6290   -29.3480     3.5430 n          1 W8A      -0.392400
     10 N13        -46.7350   -28.7540     5.6860 ns         1 W8A      -0.521900
     11 O06        -44.4330   -32.4630     3.4470 o          1 W8A      -0.718500
     12 O07        -42.7730   -33.2590     2.3250 o          1 W8A      -0.718500
     13 O09        -47.0140   -30.0120     1.4000 o          1 W8A      -0.581100
     14 S03        -44.1630   -30.6350     0.4150 ss         1 W8A      -0.450000
     15 H013       -44.5310   -27.4210     2.3760 hc         1 W8A       0.037367
     16 H012       -43.1980   -28.0180     1.3670 hc         1 W8A       0.037367
     17 H011       -44.8000   -27.7320     0.6510 hc         1 W8A       0.037367
     18 H021       -44.1060   -29.8940     2.7250 h1         1 W8A       0.144700
     19 H041       -45.6660   -32.4030     1.2380 h1         1 W8A       0.049200
     20 H042       -44.3170   -33.0820     0.3150 h1         1 W8A       0.049200
     21 H112       -48.4250   -30.4980     3.7240 h1         1 W8A       0.060200
     22 H122       -48.7770   -28.1720     5.5170 h1         1 W8A       0.044200
     23 H121       -48.5250   -29.8650     5.9980 h1         1 W8A       0.044200
     24 H131       -46.3600   -28.4440     6.5750 hn         1 W8A       0.331500
     25 O15        -44.7010   -28.7300     4.6950 o          1 W8A      -0.537000
     26 H111       -48.6760   -28.8010     3.2420 h1         1 W8A       0.060200
@<TRIPOS>BOND
     1     1     2 1   
     2     1    15 1   
     3     1    16 1   
     4     1    17 1   
     5     2     5 1   
     6     2    14 1   
     7     2    18 1   
     8     3     4 1   
     9     3    14 1   
    10     3    19 1   
    11     3    20 1   
    12     4    11 1   
    13     4    12 1   
    14     5     9 1   
    15     5    13 2   
    16     6     7 1   
    17     6     9 1   
    18     6    21 1   
    19     6    26 1   
    20     7    10 1   
    21     7    22 1   
    22     7    23 1   
    23     8     9 1   
    24     8    10 1   
    25     8    25 2   
    26    10    24 1   
@<TRIPOS>SUBSTRUCTURE
     1 W8A         1 TEMP              0 ****  ****    0 ROOT
