@<TRIPOS>MOLECULE
W8A
   26    26     1     0     0
SMALL
abcg2


@<TRIPOS>ATOM
      1 C01        -44.2100   -28.1400     1.3300 c3         1 W8A      -0.065100
      2 C02        -44.6730   -29.5020     1.8440 c3         1 W8A       0.012300
      3 C04        -44.8000   -32.2660     1.4210 c3         1 W8A      -0.067400
      4 C05        -44.0250   -32.6470     2.7090 c          1 W8A       0.719000
      5 C08        -46.1610   -29.4440     2.1460 c          1 W8A       0.634100
      6 C11        -47.9940   -29.3090     3.7670 c5         1 W8A       0.082000
      7 C12        -47.9970   -29.3830     5.2920 c5         1 W8A       0.085000
      8 C14        -45.8200   -28.9300     4.5820 c          1 W8A       0.624000
      9 N10        -46.5690   -29.3020     3.4510 n          1 W8A      -0.392400
     10 N13        -46.6900   -28.8580     5.6070 ns         1 W8A      -0.521900
     11 O06        -44.5290   -33.6050     3.3260 o          1 W8A      -0.718500
     12 O07        -42.9990   -32.0100     2.9950 o          1 W8A      -0.718500
     13 O09        -47.0020   -29.5250     1.2750 o          1 W8A      -0.581100
     14 S03        -44.3180   -30.7450     0.5720 ss         1 W8A      -0.450000
     15 H013       -44.3830   -27.3690     2.0800 hc         1 W8A       0.037367
     16 H012       -43.1420   -28.1620     1.1140 hc         1 W8A       0.037367
     17 H011       -44.7390   -27.8570     0.4200 hc         1 W8A       0.037367
     18 H021       -44.1020   -29.7720     2.7240 h1         1 W8A       0.144700
     19 H041       -45.8740   -32.2520     1.6230 h1         1 W8A       0.049200
     20 H042       -44.6510   -33.0590     0.6810 h1         1 W8A       0.049200
     21 H112       -48.4950   -30.1610     3.3130 h1         1 W8A       0.060200
     22 H122       -48.7900   -28.7790     5.7280 h1         1 W8A       0.044200
     23 H121       -48.1110   -30.4110     5.6460 h1         1 W8A       0.044200
     24 H131       -46.3520   -28.7640     6.5510 hn         1 W8A       0.331500
     25 O15        -44.6320   -28.6890     4.6210 o          1 W8A      -0.537000
     26 H111       -48.4700   -28.3950     3.4060 h1         1 W8A       0.060200
@<TRIPOS>BOND
     1     1     2 1   
     2     1    15 1   
     3     1    16 1   
     4     1    17 1   
     5     2     5 1   
     6     2    14 1   
     7     2    18 1   
     8     3     4 1   
     9     3    14 1   
    10     3    19 1   
    11     3    20 1   
    12     4    11 1   
    13     4    12 1   
    14     5     9 1   
    15     5    13 2   
    16     6     7 1   
    17     6     9 1   
    18     6    21 1   
    19     6    26 1   
    20     7    10 1   
    21     7    22 1   
    22     7    23 1   
    23     8     9 1   
    24     8    10 1   
    25     8    25 2   
    26    10    24 1   
@<TRIPOS>SUBSTRUCTURE
     1 W8A         1 TEMP              0 ****  ****    0 ROOT
