@<TRIPOS>MOLECULE
W8B
   24    25     1     0     0
SMALL
abcg2


@<TRIPOS>ATOM
      1 N1          -3.5800    14.2660   -34.1810 nc         1 W8B      -0.388300
      2 C7           0.8120    13.6700   -35.8570 c6         1 W8B       0.171300
      3 N2          -0.5710    14.0150   -36.2190 nh         1 W8B      -0.668400
      4 O1           1.6260    14.9780   -37.7320 os         1 W8B      -0.452000
      5 C1          -1.6150    13.6020   -35.4290 cd         1 W8B       0.122400
      6 C5           0.2880    15.2930   -38.1000 c6         1 W8B       0.146600
      7 C6           1.6910    13.7050   -37.0920 c6         1 W8B       0.146600
      8 C4          -0.6380    15.3140   -36.8930 c6         1 W8B       0.171300
      9 C3          -2.9550    11.9150   -34.2280 c          1 W8B       0.555200
     10 C2          -1.8520    12.2860   -35.0790 cc         1 W8B      -0.075200
     11 CL          -0.9260    10.9680   -35.7090 cl         1 W8B      -0.144000
     12 O           -3.2440    10.7750   -33.8610 o          1 W8B      -0.529000
     13 N           -3.7370    12.9890   -33.8420 ns         1 W8B      -0.234900
     14 C           -2.5700    14.5630   -34.9370 cd         1 W8B       0.306500
     15 H2           1.1770    14.4040   -35.1260 h1         1 W8B       0.056450
     16 H3           0.3100    16.2770   -38.5660 h1         1 W8B       0.060200
     17 H4          -0.0770    14.5580   -38.8290 h1         1 W8B       0.060200
     18 H5           1.3770    12.9220   -37.7940 h1         1 W8B       0.060200
     19 H6           2.7320    13.5430   -36.8170 h1         1 W8B       0.060200
     20 H7          -0.3450    16.1260   -36.2160 h1         1 W8B       0.056450
     21 H8          -1.6550    15.4950   -37.2390 h1         1 W8B       0.056450
     22 H9          -4.5320    12.7910   -33.2480 hn         1 W8B       0.357500
     23 H10         -2.4600    15.6100   -35.1750 h4         1 W8B       0.046800
     24 H1           0.8550    12.6870   -35.4010 h1         1 W8B       0.056450
@<TRIPOS>BOND
     1     1    13 1   
     2     1    14 2   
     3     2     3 1   
     4     2     7 1   
     5     2    15 1   
     6     2    24 1   
     7     3     5 1   
     8     3     8 1   
     9     4     6 1   
    10     4     7 1   
    11     5    10 2   
    12     5    14 1   
    13     6     8 1   
    14     6    16 1   
    15     6    17 1   
    16     7    18 1   
    17     7    19 1   
    18     8    20 1   
    19     8    21 1   
    20     9    10 1   
    21     9    12 2   
    22     9    13 1   
    23    10    11 1   
    24    13    22 1   
    25    14    23 1   
@<TRIPOS>SUBSTRUCTURE
     1 W8B         1 TEMP              0 ****  ****    0 ROOT
