@<TRIPOS>MOLECULE
W8B
   24    25     1     0     0
SMALL
No Charge or Current Charge


@<TRIPOS>ATOM
      1 N1          -3.5060    14.2770   -33.9110 nc         1 W8B      -0.388300
      2 C7           0.8410    13.7320   -35.7990 c6         1 W8B       0.171300
      3 N2          -0.5720    14.0550   -36.1830 nh         1 W8B      -0.668400
      4 O1           1.6600    14.9900   -37.7600 os         1 W8B      -0.452000
      5 C1          -1.6460    13.6420   -35.3640 cd         1 W8B       0.122400
      6 C5           0.3120    15.2440   -38.2240 c6         1 W8B       0.146600
      7 C6           1.7790    13.7380   -37.0400 c6         1 W8B       0.146600
      8 C4          -0.6850    15.2860   -37.0280 c6         1 W8B       0.171300
      9 C3          -3.0820    11.8740   -34.3060 c          1 W8B       0.555200
     10 C2          -1.9500    12.2930   -35.1750 cc         1 W8B      -0.075200
     11 Cl          -1.0860    10.9910   -35.9700 cl         1 W8B      -0.144000
     12 O           -3.4150    10.7160   -34.0880 o          1 W8B      -0.529000
     13 N           -3.7540    12.9410   -33.7500 ns         1 W8B      -0.234900
     14 C           -2.4870    14.6290   -34.6950 cd         1 W8B       0.306500
     15 H2           1.2070    14.4760   -35.0760 h1         1 W8B       0.056450
     16 H3           0.2890    16.2020   -38.7620 h1         1 W8B       0.060200
     17 H4           0.0160    14.4520   -38.9270 h1         1 W8B       0.060200
     18 H5           1.5160    12.9070   -37.7100 h1         1 W8B       0.060200
     19 H6           2.8210    13.6030   -36.7200 h1         1 W8B       0.060200
     20 H7          -0.4780    16.1800   -36.4230 h1         1 W8B       0.056450
     21 H8          -1.7070    15.3870   -37.4220 h1         1 W8B       0.056450
     22 H9          -4.5350    12.6860   -33.1500 hn         1 W8B       0.357500
     23 H10         -2.3330    15.6970   -34.7830 h4         1 W8B       0.046800
     24 H1           0.9060    12.7530   -35.3040 h1         1 W8B       0.056450
@<TRIPOS>BOND
     1     1    13 1   
     2     1    14 2   
     3     2     3 1   
     4     2     7 1   
     5     2    15 1   
     6     2    24 1   
     7     3     5 1   
     8     3     8 1   
     9     4     6 1   
    10     4     7 1   
    11     5    10 2   
    12     5    14 1   
    13     6     8 1   
    14     6    16 1   
    15     6    17 1   
    16     7    18 1   
    17     7    19 1   
    18     8    20 1   
    19     8    21 1   
    20     9    10 1   
    21     9    12 2   
    22     9    13 1   
    23    10    11 1   
    24    13    22 1   
    25    14    23 1   
@<TRIPOS>SUBSTRUCTURE
     1 W8B         1 TEMP              0 ****  ****    0 ROOT
