@<TRIPOS>MOLECULE
W8D
   29    31     1     0     0
SMALL
No Charge or Current Charge


@<TRIPOS>ATOM
      1 C10        -44.2850   -27.8200     1.8670 c5         1 W8D       0.138300
      2 C13        -43.8800   -26.7540    -0.3010 c5         1 W8D      -0.113400
      3 C15        -47.2350   -28.7550     3.1920 cc         1 W8D       0.608400
      4 C02        -47.7200   -29.0670     5.4530 cd         1 W8D       0.740900
      5 C03        -46.4040   -29.4230     5.6500 cc         1 W8D      -0.112600
      6 C05        -44.4820   -30.0060     6.3580 cd         1 W8D       0.529200
      7 C07        -45.5180   -29.4640     4.6290 cc         1 W8D      -0.092000
      8 C09        -44.9480   -29.1830     2.1800 c3         1 W8D       0.048600
      9 C12        -45.3720   -26.7940     0.0790 c5         1 W8D       0.148600
     10 C14        -43.3150   -27.8580     0.6380 c5         1 W8D      -0.104400
     11 N01        -48.6780   -28.9830     6.3710 nv         1 W8D      -1.040900
     12 N04        -45.7420   -29.7750     6.7900 nc         1 W8D      -0.596100
     13 N06        -44.3070   -29.8120     4.9710 nd         1 W8D      -0.441300
     14 N08        -45.8770   -29.1540     3.3310 na         1 W8D      -0.141500
     15 N16        -48.1470   -28.7140     4.2010 nd         1 W8D      -0.817000
     16 O11        -45.3020   -26.8510     1.5130 os         1 W8D      -0.458000
     17 H101       -43.7660   -27.4700     2.7710 h1         1 W8D       0.098700
     18 H132       -43.7070   -26.9670    -1.3620 hc         1 W8D       0.060200
     19 H131       -43.4440   -25.7730    -0.0810 hc         1 W8D       0.060200
     20 H051       -43.6640   -30.3120     7.0000 h5         1 W8D       0.049800
     21 H092       -45.4970   -29.5260     1.2940 h1         1 W8D       0.074700
     22 H091       -44.1600   -29.9220     2.3710 h1         1 W8D       0.074700
     23 H121       -45.9250   -25.9000    -0.2400 h1         1 W8D       0.046700
     24 H122       -45.8780   -27.6910    -0.3030 h1         1 W8D       0.046700
     25 H141       -43.3270   -28.8380     0.1460 hc         1 W8D       0.057200
     26 H142       -42.2760   -27.6610     0.9260 hc         1 W8D       0.057200
     27 H011       -49.4440   -28.3790     6.1060 hn         1 W8D       0.513000
     28 H012       -48.3490   -28.8960     7.3240 hn         1 W8D       0.513000
     29 H151       -47.5390   -28.4800     2.1900 h5         1 W8D       0.049100
@<TRIPOS>BOND
     1     1     8 1   
     2     1    10 1   
     3     1    16 1   
     4     1    17 1   
     5     2     9 1   
     6     2    10 1   
     7     2    18 1   
     8     2    19 1   
     9     3    14 1   
    10     3    15 2   
    11     3    29 1   
    12     4     5 2   
    13     4    11 1   
    14     4    15 1   
    15     5     7 1   
    16     5    12 1   
    17     6    12 2   
    18     6    13 1   
    19     6    20 1   
    20     7    13 2   
    21     7    14 1   
    22     8    14 1   
    23     8    21 1   
    24     8    22 1   
    25     9    16 1   
    26     9    23 1   
    27     9    24 1   
    28    10    25 1   
    29    10    26 1   
    30    11    27 1   
    31    11    28 1   
@<TRIPOS>SUBSTRUCTURE
     1 W8D         1 TEMP              0 ****  ****    0 ROOT
