@<TRIPOS>MOLECULE
W8D
   29    31     1     0     0
SMALL
abcg2


@<TRIPOS>ATOM
      1 C10        -44.3430   -27.9730     1.8770 c5         1 W8D       0.138300
      2 C13        -43.8540   -26.7520    -0.1350 c5         1 W8D      -0.113400
      3 C15        -47.2230   -29.0010     3.0950 cc         1 W8D       0.608400
      4 C02        -47.6870   -28.9800     5.3490 cd         1 W8D       0.740900
      5 C03        -46.3400   -29.2640     5.6070 cc         1 W8D      -0.112600
      6 C05        -44.4070   -29.6720     6.2920 cd         1 W8D       0.529200
      7 C07        -45.4660   -29.4020     4.5250 cc         1 W8D      -0.092000
      8 C09        -45.0110   -29.3210     2.1090 c3         1 W8D       0.048600
      9 C12        -45.3080   -26.6140     0.2780 c5         1 W8D       0.148600
     10 C14        -43.4340   -28.0010     0.6370 c5         1 W8D      -0.104400
     11 N01        -48.5980   -28.8230     6.3010 nv         1 W8D      -1.040900
     12 N04        -45.6270   -29.4450     6.7520 nc         1 W8D      -0.596100
     13 N06        -44.2350   -29.6590     4.9470 nd         1 W8D      -0.441300
     14 N08        -45.9210   -29.2750     3.2440 na         1 W8D      -0.141500
     15 N16        -48.0870   -28.8620     4.0620 nd         1 W8D      -0.817000
     16 O11        -45.3250   -26.9760     1.6500 os         1 W8D      -0.458000
     17 H101       -43.7830   -27.6940     2.7750 h1         1 W8D       0.098700
     18 H132       -43.7280   -26.8550    -1.2120 hc         1 W8D       0.060200
     19 H131       -43.2820   -25.8810     0.1910 hc         1 W8D       0.060200
     20 H051       -43.5730   -29.8620     6.9550 h5         1 W8D       0.049800
     21 H092       -45.5810   -29.6260     1.2300 h1         1 W8D       0.074700
     22 H091       -44.2620   -30.0890     2.3010 h1         1 W8D       0.074700
     23 H121       -45.7010   -25.6010     0.1830 h1         1 W8D       0.046700
     24 H122       -45.9450   -27.2830    -0.3150 h1         1 W8D       0.046700
     25 H141       -43.6150   -28.8970     0.0380 hc         1 W8D       0.057200
     26 H142       -42.3800   -28.0020     0.9110 hc         1 W8D       0.057200
     27 H011       -49.5550   -28.6220     6.0670 hn         1 W8D       0.513000
     28 H012       -48.3470   -28.8930     7.2720 hn         1 W8D       0.513000
     29 H151       -47.5720   -28.9030     2.0750 h5         1 W8D       0.049100
@<TRIPOS>BOND
     1     1     8 1   
     2     1    10 1   
     3     1    16 1   
     4     1    17 1   
     5     2     9 1   
     6     2    10 1   
     7     2    18 1   
     8     2    19 1   
     9     3    14 1   
    10     3    15 2   
    11     3    29 1   
    12     4     5 2   
    13     4    11 1   
    14     4    15 1   
    15     5     7 1   
    16     5    12 1   
    17     6    12 2   
    18     6    13 1   
    19     6    20 1   
    20     7    13 2   
    21     7    14 1   
    22     8    14 1   
    23     8    21 1   
    24     8    22 1   
    25     9    16 1   
    26     9    23 1   
    27     9    24 1   
    28    10    25 1   
    29    10    26 1   
    30    11    27 1   
    31    11    28 1   
@<TRIPOS>SUBSTRUCTURE
     1 W8D         1 TEMP              0 ****  ****    0 ROOT
