@<TRIPOS>MOLECULE
W8F
   24    24     1     0     0
SMALL
abcg2


@<TRIPOS>ATOM
      1 C7           1.6420    13.5250   -35.8790 c3         1 W8F       0.148900
      2 C8          -2.3690    16.6290   -34.9950 c3         1 W8F       0.194100
      3 C1          -1.5430    12.4100   -34.4640 ca         1 W8F      -0.100300
      4 C5          -0.8480    14.6320   -35.1760 ca         1 W8F      -0.165000
      5 C6          -0.5750    13.2790   -35.0030 ca         1 W8F       0.129100
      6 C4          -2.0920    15.1570   -34.8140 ca         1 W8F      -0.056300
      7 C3          -3.0510    14.3080   -34.2790 ca         1 W8F      -0.141000
      8 C2          -2.7710    12.9510   -34.1110 ca         1 W8F      -0.084000
      9 N           -1.5240    17.4430   -34.1030 n8         1 W8F      -0.999200
     10 O            0.6140    12.7000   -35.3370 os         1 W8F      -0.353100
     11 H1           2.4880    12.8660   -36.0620 h1         1 W8F       0.041033
     12 H2           1.3250    13.9840   -36.8180 h1         1 W8F       0.041033
     13 H3           1.9320    14.3060   -35.1720 h1         1 W8F       0.041033
     14 H4          -3.4410    16.8040   -34.8430 h1         1 W8F       0.035200
     15 H5          -2.1360    16.9230   -36.0210 h1         1 W8F       0.035200
     16 H6          -0.1010    15.2950   -35.5880 ha         1 W8F       0.125000
     17 H7          -4.0200    14.7010   -33.9940 ha         1 W8F       0.110000
     18 H8          -3.5270    12.2960   -33.6930 ha         1 W8F       0.112000
     19 H9          -1.7180    18.4270   -34.2620 hn         1 W8F       0.394500
     20 H10         -1.7780    17.2570   -33.1380 hn         1 W8F       0.394500
     21 H12         -0.3810    10.8000   -33.6250 hc         1 W8F       0.042700
     22 H13         -2.0970    10.4300   -33.8590 hc         1 W8F       0.042700
     23 H14         -0.9870    10.4770   -35.2380 hc         1 W8F       0.042700
     24 C           -1.2390    10.9500   -34.2850 c3         1 W8F      -0.033800
@<TRIPOS>BOND
     1     1    10 1   
     2     1    11 1   
     3     1    12 1   
     4     1    13 1   
     5     2     6 1   
     6     2     9 1   
     7     2    14 1   
     8     2    15 1   
     9     3     5 ar  
    10     3     8 ar  
    11     3    24 1   
    12     4     5 ar  
    13     4     6 ar  
    14     4    16 1   
    15     5    10 1   
    16     6     7 ar  
    17     7     8 ar  
    18     7    17 1   
    19     8    18 1   
    20     9    19 1   
    21     9    20 1   
    22    21    24 1   
    23    22    24 1   
    24    23    24 1   
@<TRIPOS>SUBSTRUCTURE
     1 W8F         1 TEMP              0 ****  ****    0 ROOT
