@<TRIPOS>MOLECULE
W8F
   24    24     1     0     0
SMALL
No Charge or Current Charge


@<TRIPOS>ATOM
      1 C7           1.7330    13.4310   -35.9970 c3         1 W8F       0.148900
      2 C8          -2.2990    16.6750   -35.0260 c3         1 W8F       0.194100
      3 C1          -1.5270    12.4280   -34.4460 ca         1 W8F      -0.100300
      4 C5          -0.7930    14.6300   -35.2100 ca         1 W8F      -0.165000
      5 C6          -0.5370    13.2520   -35.0260 ca         1 W8F       0.129100
      6 C4          -2.0260    15.1880   -34.8190 ca         1 W8F      -0.056300
      7 C3          -3.0050    14.3600   -34.2420 ca         1 W8F      -0.141000
      8 C2          -2.7580    12.9900   -34.0560 ca         1 W8F      -0.084000
      9 N           -1.7690    17.4880   -33.9130 n8         1 W8F      -0.999200
     10 O            0.6640    12.6750   -35.3990 os         1 W8F      -0.353100
     11 H1           2.5870    12.7770   -36.2110 h1         1 W8F       0.041033
     12 H2           1.4080    13.8860   -36.9410 h1         1 W8F       0.041033
     13 H3           2.0750    14.2250   -35.3210 h1         1 W8F       0.041033
     14 H4          -3.3820    16.8450   -35.1050 h1         1 W8F       0.035200
     15 H5          -1.8340    17.0110   -35.9630 h1         1 W8F       0.035200
     16 H6          -0.0470    15.2840   -35.6520 ha         1 W8F       0.125000
     17 H7          -3.9620    14.7780   -33.9360 ha         1 W8F       0.110000
     18 H8          -3.5280    12.3650   -33.6080 ha         1 W8F       0.112000
     19 H9          -2.0600    18.4640   -34.0480 hn         1 W8F       0.394500
     20 H10         -2.2470    17.2080   -33.0490 hn         1 W8F       0.394500
     21 H12         -0.4100    10.7750   -33.5830 hc         1 W8F       0.042700
     22 H13         -2.1350    10.4380   -33.7790 hc         1 W8F       0.042700
     23 H14         -1.0720    10.4380   -35.1920 hc         1 W8F       0.042700
     24 C           -1.2740    10.9380   -34.2380 c3         1 W8F      -0.033800
@<TRIPOS>BOND
     1     1    10 1   
     2     1    11 1   
     3     1    12 1   
     4     1    13 1   
     5     2     6 1   
     6     2     9 1   
     7     2    14 1   
     8     2    15 1   
     9     3     5 ar  
    10     3     8 ar  
    11     3    24 1   
    12     4     5 ar  
    13     4     6 ar  
    14     4    16 1   
    15     5    10 1   
    16     6     7 ar  
    17     7     8 ar  
    18     7    17 1   
    19     8    18 1   
    20     9    19 1   
    21     9    20 1   
    22    21    24 1   
    23    22    24 1   
    24    23    24 1   
@<TRIPOS>SUBSTRUCTURE
     1 W8F         1 TEMP              0 ****  ****    0 ROOT
