@<TRIPOS>MOLECULE
W8G
   29    31     1     0     0
SMALL
bcc


@<TRIPOS>ATOM
      1 N1          -0.7710    -1.5210    -0.1720 nb         1 W8G      -0.877000
      2 C2          -2.0480    -1.6780     0.1860 ca         1 W8G       0.940900
      3 N3          -2.9420    -0.7190     0.3730 nb         1 W8G      -0.819000
      4 C4          -2.4380     0.4960     0.1650 ca         1 W8G       0.510800
      5 C5          -1.1250     0.8220    -0.2280 ca         1 W8G      -0.412400
      6 C6          -0.2790    -0.3050    -0.4000 ca         1 W8G       0.789200
      7 NAA         -2.4710    -2.9660     0.3330 nv         1 W8G      -0.931500
      8 CAB         -2.3060     2.7160     0.0610 cc         1 W8G      -0.139100
      9 CAC         -1.0710     2.2600    -0.2790 cd         1 W8G      -0.147200
     10 CAD          2.5520    -1.2930     0.7980 c6         1 W8G      -0.015300
     11 CAE          2.3430     1.4400     0.3850 c6         1 W8G      -0.015300
     12 CAF          1.8950    -1.3870    -0.5720 c6         1 W8G       0.211300
     13 CAG          1.7380     0.9980    -0.9390 c6         1 W8G       0.211300
     14 NAJ         -3.1270     1.6470     0.3250 na         1 W8G      -0.273100
     15 SAK          3.5490     0.2170     0.9820 ss         1 W8G      -0.351200
     16 NAP          1.0180    -0.2510    -0.8080 nh         1 W8G      -0.762300
     17 HNAA        -1.7570    -3.6590     0.4780 hn         1 W8G       0.422300
     18 HNAB        -3.3110    -3.1050     0.8690 hn         1 W8G       0.422300
     19 HAB         -2.6710     3.7260     0.1420 h4         1 W8G       0.166000
     20 HAC         -0.2440     2.9030    -0.5240 ha         1 W8G       0.149000
     21 HADA         3.2390    -2.1270     0.9450 h1         1 W8G       0.078450
     22 HAE          2.8890     2.3760     0.2650 h1         1 W8G       0.078450
     23 HAEA         1.5650     1.5970     1.1350 h1         1 W8G       0.078450
     24 HAF          2.6580    -1.3990    -1.3540 h1         1 W8G       0.073950
     25 HAFA         1.3260    -2.3100    -0.6430 h1         1 W8G       0.073950
     26 HAG          1.0950     1.7660    -1.3580 h1         1 W8G       0.073950
     27 HAGA         2.5350     0.8450    -1.6690 h1         1 W8G       0.073950
     28 HNAJ        -4.0920     1.7050     0.6070 hn         1 W8G       0.309700
     29 HAD          1.7950    -1.3390     1.5840 h1         1 W8G       0.078450
@<TRIPOS>BOND
     1     1     2 ar  
     2     1     6 ar  
     3     2     3 ar  
     4     2     7 1   
     5     3     4 ar  
     6     4     5 ar  
     7     4    14 1   
     8     5     6 ar  
     9     5     9 1   
    10     6    16 1   
    11     7    17 1   
    12     7    18 1   
    13     8     9 2   
    14     8    14 1   
    15     8    19 1   
    16     9    20 1   
    17    10    12 1   
    18    10    15 1   
    19    10    21 1   
    20    10    29 1   
    21    11    13 1   
    22    11    15 1   
    23    11    22 1   
    24    11    23 1   
    25    12    16 1   
    26    12    24 1   
    27    12    25 1   
    28    13    16 1   
    29    13    26 1   
    30    13    27 1   
    31    14    28 1   
@<TRIPOS>SUBSTRUCTURE
     1 W8G         1 TEMP              0 ****  ****    0 ROOT
