@<TRIPOS>MOLECULE
W8G
   29    31     1     0     0
SMALL
No Charge or Current Charge


@<TRIPOS>ATOM
      1 N1          -0.9120    -1.6120    -0.3660 nb         1 W8G      -0.351000
      2 C2          -2.2490    -1.7350    -0.3930 ca         1 W8G       0.414900
      3 N3          -3.1770    -0.7860    -0.1780 nb         1 W8G      -0.293000
      4 C4          -2.6910     0.4350     0.0970 ca         1 W8G       0.182500
      5 C5          -1.3420     0.6670     0.1480 ca         1 W8G      -0.281800
      6 C6          -0.4360    -0.3790    -0.0960 ca         1 W8G       0.460900
      7 NAA         -2.7150    -2.9740    -0.6650 nv         1 W8G      -1.041900
      8 CAB         -2.4060     2.6670     0.6390 cc         1 W8G      -0.189100
      9 CAC         -1.1720     2.0590     0.4950 cd         1 W8G      -0.197200
     10 CAD          3.1320    -0.8590     1.0450 c6         1 W8G       0.032600
     11 CAE          2.7840     1.5250    -0.3670 c6         1 W8G       0.032600
     12 CAF          1.8730    -1.3350     0.2730 c6         1 W8G       0.211300
     13 CAG          1.5730     0.7960    -1.0030 c6         1 W8G       0.211300
     14 NAJ         -3.3320     1.6310     0.3820 na         1 W8G      -0.323400
     15 SAK          4.1630     0.3830     0.1260 ss         1 W8G      -0.447000
     16 NAP          0.9630    -0.1960    -0.0680 nh         1 W8G      -0.762300
     17 HNAA        -2.0650    -3.7530    -0.6140 hn         1 W8G       0.477500
     18 HNAB        -3.6940    -3.1760    -0.4770 hn         1 W8G       0.477500
     19 HAB         -2.6860     3.6880     0.8960 h4         1 W8G       0.216000
     20 HAC         -0.2180     2.5610     0.6430 ha         1 W8G       0.199000
     21 HADA         3.7660    -1.7240     1.2850 h1         1 W8G       0.078450
     22 HAE          3.1840     2.2640    -1.0750 h1         1 W8G       0.078450
     23 HAEA         2.4500     2.0650     0.5300 h1         1 W8G       0.078450
     24 HAF          2.1860    -1.8630    -0.6410 h1         1 W8G       0.073950
     25 HAFA         1.3520    -2.0680     0.9060 h1         1 W8G       0.073950
     26 HAG          0.8340     1.5520    -1.3080 h1         1 W8G       0.073950
     27 HAGA         1.9020     0.2940    -1.9250 h1         1 W8G       0.073950
     28 HNAJ        -4.3420     1.7310     0.4050 hn         1 W8G       0.360000
     29 HAD          2.8180    -0.4020     1.9940 h1         1 W8G       0.078450
@<TRIPOS>BOND
     1     1     2 ar  
     2     1     6 ar  
     3     2     3 ar  
     4     2     7 1   
     5     3     4 ar  
     6     4     5 ar  
     7     4    14 1   
     8     5     6 ar  
     9     5     9 1   
    10     6    16 1   
    11     7    17 1   
    12     7    18 1   
    13     8     9 2   
    14     8    14 1   
    15     8    19 1   
    16     9    20 1   
    17    10    12 1   
    18    10    15 1   
    19    10    21 1   
    20    10    29 1   
    21    11    13 1   
    22    11    15 1   
    23    11    22 1   
    24    11    23 1   
    25    12    16 1   
    26    12    24 1   
    27    12    25 1   
    28    13    16 1   
    29    13    26 1   
    30    13    27 1   
    31    14    28 1   
@<TRIPOS>SUBSTRUCTURE
     1 W8G         1 TEMP              0 ****  ****    0 ROOT
