@<TRIPOS>MOLECULE
W8H
   44    45     1     0     0
SMALL
abcg2


@<TRIPOS>ATOM
      1 C10          1.8900     5.1110    19.4420 ca         1 W8H      -0.122300
      2 C11          7.9010     8.8710    17.7000 c3         1 W8H      -0.081400
      3 O12          6.1350     5.4350    15.2220 o          1 W8H      -0.710500
      4 C15          8.4450     8.4840    19.0740 c3         1 W8H      -0.075400
      5 C16          8.3460     9.5960    20.1120 c3         1 W8H       0.069600
      6 C18          5.9410     8.5650    21.1940 ca         1 W8H      -0.077000
      7 C19          6.6860     7.6140    21.8940 ca         1 W8H      -0.086500
      8 C20          4.5710     8.3550    21.0150 ca         1 W8H      -0.086500
      9 C21          6.0770     6.4740    22.4010 ca         1 W8H      -0.093500
     10 C22          3.9510     7.2300    21.5380 ca         1 W8H      -0.093500
     11 C23          4.7120     6.2960    22.2240 ca         1 W8H       0.128000
     12 C1           3.8230     6.5870    18.0040 ca         1 W8H      -0.049000
     13 S2           4.9560     7.6130    17.1160 ss         1 W8H      -0.210000
     14 C3           2.5300     7.0900    18.1920 ca         1 W8H      -0.115500
     15 C4           4.1370     5.3370    18.5370 ca         1 W8H      -0.115500
     16 C5           6.5430     6.7210    17.2230 c3         1 W8H      -0.048700
     17 C6           1.5850     6.3610    18.8970 ca         1 W8H      -0.105500
     18 C7           3.1780     4.6200    19.2470 ca         1 W8H      -0.105500
     19 C8           7.6640     7.6750    16.7760 c3         1 W8H      -0.051400
     20 C9           6.6150     5.4200    16.3770 c          1 W8H       0.712000
     21 O13          7.2150     4.4650    16.9330 o          1 W8H      -0.710500
     22 C14          0.8600     4.3240    20.2060 c3         1 W8H      -0.031800
     23 S17          6.6340    10.0670    20.5540 ss         1 W8H      -0.222000
     24 CL24         3.9410     4.8590    22.8650 cl         1 W8H      -0.228000
     25 H32          8.6030     9.5570    17.2180 hc         1 W8H       0.039200
     26 H33          6.9660     9.4200    17.8240 hc         1 W8H       0.039200
     27 H39          7.9240     7.6040    19.4550 hc         1 W8H       0.051200
     28 H38          9.4980     8.1980    18.9860 hc         1 W8H       0.051200
     29 H40          8.8890     9.3410    21.0220 h1         1 W8H       0.056700
     30 H41          8.7690    10.5300    19.7350 h1         1 W8H       0.056700
     31 H42          7.7460     7.7520    22.0520 ha         1 W8H       0.122500
     32 H43          3.9860     9.0660    20.4470 ha         1 W8H       0.122500
     33 H44          6.6600     5.7360    22.9340 ha         1 W8H       0.129500
     34 H45          2.8950     7.0660    21.3780 ha         1 W8H       0.129500
     35 H25          2.2700     8.0650    17.7960 ha         1 W8H       0.133000
     36 H26          5.1230     4.9150    18.4160 ha         1 W8H       0.133000
     37 H27          6.6880     6.4520    18.2670 h1         1 W8H       0.054700
     38 H28          0.5950     6.7790    19.0400 ha         1 W8H       0.097000
     39 H29          3.4510     3.6600    19.6690 ha         1 W8H       0.097000
     40 H30          8.5810     7.0810    16.7070 hc         1 W8H       0.054700
     41 H31          7.4440     8.0260    15.7640 hc         1 W8H       0.054700
     42 H36          0.2110     3.7600    19.5290 hc         1 W8H       0.028367
     43 H37          1.3340     3.6090    20.8800 hc         1 W8H       0.028367
     44 H35          0.2200     4.9810    20.7960 hc         1 W8H       0.028367
@<TRIPOS>BOND
     1     1    17 ar  
     2     1    18 ar  
     3     1    22 1   
     4     2     4 1   
     5     2    19 1   
     6     2    25 1   
     7     2    26 1   
     8     3    20 1   
     9     4     5 1   
    10     4    27 1   
    11     4    28 1   
    12     5    23 1   
    13     5    29 1   
    14     5    30 1   
    15     6     7 ar  
    16     6     8 ar  
    17     6    23 1   
    18     7     9 ar  
    19     7    31 1   
    20     8    10 ar  
    21     8    32 1   
    22     9    11 ar  
    23     9    33 1   
    24    10    11 ar  
    25    10    34 1   
    26    11    24 1   
    27    12    13 1   
    28    12    14 ar  
    29    12    15 ar  
    30    13    16 1   
    31    14    17 ar  
    32    14    35 1   
    33    15    18 ar  
    34    15    36 1   
    35    16    19 1   
    36    16    20 1   
    37    16    37 1   
    38    17    38 1   
    39    18    39 1   
    40    19    40 1   
    41    19    41 1   
    42    20    21 1   
    43    22    42 1   
    44    22    43 1   
    45    22    44 1   
@<TRIPOS>SUBSTRUCTURE
     1 W8H         1 TEMP              0 ****  ****    0 ROOT
