@<TRIPOS>MOLECULE
W8H
   44    45     1     0     0
SMALL
No Charge or Current Charge


@<TRIPOS>ATOM
      1 C10          1.8990     4.8070    19.4310 ca         1 W8H      -0.122300
      2 C11          7.9240     8.8610    17.7510 c3         1 W8H      -0.081400
      3 O12          6.0150     5.9770    14.8670 o          1 W8H      -0.710500
      4 C15          8.4760     8.2920    19.0830 c3         1 W8H      -0.075400
      5 C16          8.7310     9.3650    20.1660 c3         1 W8H       0.069600
      6 C18          6.1520     8.8150    21.3280 ca         1 W8H      -0.077000
      7 C19          6.7000     7.8220    22.1630 ca         1 W8H      -0.086500
      8 C20          4.7950     8.7510    20.9650 ca         1 W8H      -0.086500
      9 C21          5.8920     6.7670    22.6260 ca         1 W8H      -0.093500
     10 C22          3.9880     7.6960    21.4280 ca         1 W8H      -0.093500
     11 C23          4.5380     6.7060    22.2580 ca         1 W8H       0.128000
     12 C1           3.7530     6.5330    18.1710 ca         1 W8H      -0.049000
     13 S2           4.8730     7.7010    17.3910 ss         1 W8H      -0.210000
     14 C3           2.3810     6.8400    18.1740 ca         1 W8H      -0.115500
     15 C4           4.1950     5.3560    18.8090 ca         1 W8H      -0.115500
     16 C5           6.4700     6.7870    17.0780 c3         1 W8H      -0.048700
     17 C6           1.4580     5.9830    18.7980 ca         1 W8H      -0.105500
     18 C7           3.2710     4.4980    19.4300 ca         1 W8H      -0.105500
     19 C8           7.5910     7.7880    16.6820 c3         1 W8H      -0.051400
     20 C9           6.2980     5.6650    16.0170 c          1 W8H       0.712000
     21 O13          6.4890     4.5090    16.3670 o          1 W8H      -0.710500
     22 C14          0.9040     3.8800    20.1130 c3         1 W8H      -0.031800
     23 S17          7.1560    10.1700    20.7240 ss         1 W8H      -0.222000
     24 Cl24         3.5270     5.3940    22.8530 cl         1 W8H      -0.228000
     25 H32          8.6690     9.5480    17.3310 hc         1 W8H       0.039200
     26 H33          7.0310     9.4660    17.9450 hc         1 W8H       0.039200
     27 H39          7.7880     7.5440    19.4900 hc         1 W8H       0.051200
     28 H38          9.4190     7.7700    18.8800 hc         1 W8H       0.051200
     29 H40          9.2210     8.9040    21.0320 h1         1 W8H       0.056700
     30 H41          9.4020    10.1380    19.7700 h1         1 W8H       0.056700
     31 H42          7.7430     7.8660    22.4630 ha         1 W8H       0.122500
     32 H43          4.3680     9.5130    20.3170 ha         1 W8H       0.122500
     33 H44          6.3130     6.0020    23.2730 ha         1 W8H       0.129500
     34 H45          2.9410     7.6430    21.1410 ha         1 W8H       0.129500
     35 H25          2.0290     7.7500    17.6940 ha         1 W8H       0.133000
     36 H26          5.2470     5.0970    18.8470 ha         1 W8H       0.133000
     37 H27          6.7760     6.3020    18.0090 h1         1 W8H       0.054700
     38 H28          0.4000     6.2360    18.7900 ha         1 W8H       0.097000
     39 H29          3.6260     3.5940    19.9210 ha         1 W8H       0.097000
     40 H30          8.5030     7.2240    16.4530 hc         1 W8H       0.054700
     41 H31          7.3010     8.2970    15.7540 hc         1 W8H       0.054700
     42 H36          0.5450     3.1120    19.4180 hc         1 W8H       0.028367
     43 H37          1.3580     3.3700    20.9720 hc         1 W8H       0.028367
     44 H35          0.0320     4.4320    20.4830 hc         1 W8H       0.028367
@<TRIPOS>BOND
     1     1    17 ar  
     2     1    18 ar  
     3     1    22 1   
     4     2     4 1   
     5     2    19 1   
     6     2    25 1   
     7     2    26 1   
     8     3    20 1   
     9     4     5 1   
    10     4    27 1   
    11     4    28 1   
    12     5    23 1   
    13     5    29 1   
    14     5    30 1   
    15     6     7 ar  
    16     6     8 ar  
    17     6    23 1   
    18     7     9 ar  
    19     7    31 1   
    20     8    10 ar  
    21     8    32 1   
    22     9    11 ar  
    23     9    33 1   
    24    10    11 ar  
    25    10    34 1   
    26    11    24 1   
    27    12    13 1   
    28    12    14 ar  
    29    12    15 ar  
    30    13    16 1   
    31    14    17 ar  
    32    14    35 1   
    33    15    18 ar  
    34    15    36 1   
    35    16    19 1   
    36    16    20 1   
    37    16    37 1   
    38    17    38 1   
    39    18    39 1   
    40    19    40 1   
    41    19    41 1   
    42    20    21 1   
    43    22    42 1   
    44    22    43 1   
    45    22    44 1   
@<TRIPOS>SUBSTRUCTURE
     1 W8H         1 TEMP              0 ****  ****    0 ROOT
