@<TRIPOS>MOLECULE
W8I
   46    49     1     0     0
SMALL
abcg2


@<TRIPOS>ATOM
      1 C18         14.2520   -25.2130    23.0700 c3         1 W8I      -0.082100
      2 N4          18.1540   -22.3710    26.0340 nb         1 W8I      -0.731000
      3 C14         15.2740   -24.1710    25.1350 c6         1 W8I      -0.117900
      4 C13         15.9410   -22.9450    24.5090 c6         1 W8I       0.214800
      5 C17         17.2960   -24.3390    23.0700 c6         1 W8I       0.214800
      6 C16         16.6830   -25.6180    23.6420 c6         1 W8I      -0.117900
      7 C15         15.2660   -25.4020    24.2010 c6         1 W8I       0.171200
      8 N3          20.7130   -23.2940    25.3530 nb         1 W8I      -0.055000
      9 C8          20.1710   -21.1880    28.8220 ca         1 W8I      -0.128000
     10 C22         26.2060   -22.7400    27.8010 ca         1 W8I      -0.113000
     11 C7          19.0760   -21.3980    28.0310 ca         1 W8I      -0.054000
     12 C5          18.3500   -23.0570    24.9160 ca         1 W8I       0.570900
     13 C6          19.6800   -23.5210    24.5930 ca         1 W8I       0.021900
     14 C1          20.5180   -22.5880    26.5010 ca         1 W8I      -0.031000
     15 C20         24.0410   -22.4820    28.8430 ca         1 W8I      -0.108000
     16 C21         25.1770   -21.9270    28.2590 ca         1 W8I      -0.051000
     17 C2          19.2210   -22.1240    26.8250 ca         1 W8I       0.239000
     18 C23         26.1020   -24.1170    27.9080 ca         1 W8I      -0.072000
     19 C24         24.9720   -24.6820    28.4870 ca         1 W8I       0.113000
     20 C25         23.9390   -23.8760    28.9670 ca         1 W8I       0.174000
     21 C9          21.4220   -21.7010    28.4000 ca         1 W8I       0.196300
     22 N10         21.5960   -22.3650    27.2850 nb         1 W8I      -0.095000
     23 N12         17.2990   -23.2790    24.0780 nh         1 W8I      -0.764300
     24 N19         14.8840   -26.6290    24.9260 n8         1 W8I      -0.994200
     25 S11         22.8050   -21.3840    29.4780 ss         1 W8I      -0.142300
     26 CL1         22.5490   -24.5960    29.7070 cl         1 W8I      -0.159000
     27 CL2         24.8820   -26.4160    28.6030 cl         1 W8I      -0.181000
     28 H1          13.2470   -25.1010    23.4830 hc         1 W8I       0.040367
     29 H2          14.4650   -24.3280    22.4710 hc         1 W8I       0.040367
     30 H3          14.2600   -26.0820    22.4100 hc         1 W8I       0.040367
     31 H4          14.2490   -23.9270    25.4260 hc         1 W8I       0.055450
     32 H5          15.8210   -24.4310    26.0470 hc         1 W8I       0.055450
     33 H6          15.9830   -22.1220    25.2150 h1         1 W8I       0.063950
     34 H7          15.3910   -22.6110    23.6270 h1         1 W8I       0.063950
     35 H8          18.2980   -24.5290    22.6990 h1         1 W8I       0.063950
     36 H9          16.7130   -23.9780    22.2210 h1         1 W8I       0.063950
     37 H10         16.6570   -26.3920    22.8720 hc         1 W8I       0.055450
     38 H11         17.3290   -25.9790    24.4480 hc         1 W8I       0.055450
     39 H12         20.0920   -20.6510    29.7580 ha         1 W8I       0.136000
     40 H14         18.0960   -21.0310    28.3110 ha         1 W8I       0.136000
     41 H15         19.8630   -24.0790    23.6850 h4         1 W8I       0.031100
     42 H16         25.2440   -20.8530    28.1630 ha         1 W8I       0.132000
     43 H17         26.8900   -24.7640    27.5460 ha         1 W8I       0.133000
     44 H18         15.5030   -26.7540    25.7230 hn         1 W8I       0.395500
     45 H19         13.9510   -26.5140    25.3120 hn         1 W8I       0.395500
     46 H13         27.0850   -22.3000    27.3490 ha         1 W8I       0.125000
@<TRIPOS>BOND
     1     1     7 1   
     2     1    28 1   
     3     1    29 1   
     4     1    30 1   
     5     2    12 ar  
     6     2    17 ar  
     7     3     4 1   
     8     3     7 1   
     9     3    31 1   
    10     3    32 1   
    11     4    23 1   
    12     4    33 1   
    13     4    34 1   
    14     5     6 1   
    15     5    23 1   
    16     5    35 1   
    17     5    36 1   
    18     6     7 1   
    19     6    37 1   
    20     6    38 1   
    21     7    24 1   
    22     8    13 ar  
    23     8    14 ar  
    24     9    11 ar  
    25     9    21 ar  
    26     9    39 1   
    27    10    16 ar  
    28    10    18 ar  
    29    10    46 1   
    30    11    17 ar  
    31    11    40 1   
    32    12    13 ar  
    33    12    23 1   
    34    13    41 1   
    35    14    17 ar  
    36    14    22 ar  
    37    15    16 ar  
    38    15    20 ar  
    39    15    25 1   
    40    16    42 1   
    41    18    19 ar  
    42    18    43 1   
    43    19    20 ar  
    44    19    27 1   
    45    20    26 1   
    46    21    22 ar  
    47    21    25 1   
    48    24    44 1   
    49    24    45 1   
@<TRIPOS>SUBSTRUCTURE
     1 W8I         1 TEMP              0 ****  ****    0 ROOT
