@<TRIPOS>MOLECULE
W8I
   46    49     1     0     0
SMALL
No Charge or Current Charge


@<TRIPOS>ATOM
      1 C18         14.5810   -24.5150    22.3580 c3         1 W8I      -0.082100
      2 N4          18.2890   -22.9770    26.6440 nb         1 W8I      -0.731000
      3 C14         14.7500   -24.2970    24.9200 c6         1 W8I      -0.117900
      4 C13         15.9920   -23.3720    24.9540 c6         1 W8I       0.214800
      5 C17         17.3420   -25.1370    23.7870 c6         1 W8I       0.214800
      6 C16         16.1000   -26.0620    23.7510 c6         1 W8I      -0.117900
      7 C15         14.7720   -25.2650    23.7120 c6         1 W8I       0.171200
      8 N3          20.8370   -23.2750    25.4900 nb         1 W8I      -0.055000
      9 C8          20.4110   -21.2430    29.0650 ca         1 W8I      -0.128000
     10 C22         26.2910   -22.4770    27.3080 ca         1 W8I      -0.113000
     11 C7          19.2680   -21.7710    28.4500 ca         1 W8I      -0.054000
     12 C5          18.4530   -23.6360    25.4820 ca         1 W8I       0.570900
     13 C6          19.7340   -23.7830    24.9080 ca         1 W8I       0.021900
     14 C1          20.6990   -22.6100    26.6590 ca         1 W8I      -0.031000
     15 C20         24.3480   -21.9630    28.6890 ca         1 W8I      -0.108000
     16 C21         25.3240   -21.5630    27.7590 ca         1 W8I      -0.051000
     17 C2          19.3940   -22.4670    27.2340 ca         1 W8I       0.239000
     18 C23         26.2870   -23.7980    27.7880 ca         1 W8I      -0.072000
     19 C24         25.3180   -24.2070    28.7200 ca         1 W8I       0.113000
     20 C25         24.3450   -23.2910    29.1770 ca         1 W8I       0.174000
     21 C9          21.6540   -21.4280    28.4460 ca         1 W8I       0.196300
     22 N10         21.7840   -22.0880    27.2760 nb         1 W8I      -0.095000
     23 N12         17.2660   -24.1570    24.9100 nh         1 W8I      -0.764300
     24 N19         13.6520   -26.2100    23.8460 n8         1 W8I      -0.994200
     25 S11         23.1260   -20.7640    29.2250 ss         1 W8I      -0.142300
     26 Cl1         23.1310   -23.8040    30.3570 cl         1 W8I      -0.159000
     27 Cl2         25.3460   -25.8740    29.3010 cl         1 W8I      -0.181000
     28 H1          13.6300   -23.9690    22.3360 hc         1 W8I       0.040367
     29 H2          15.3760   -23.7860    22.1690 hc         1 W8I       0.040367
     30 H3          14.5770   -25.2140    21.5130 hc         1 W8I       0.040367
     31 H4          13.8410   -23.6810    24.9020 hc         1 W8I       0.055450
     32 H5          14.7180   -24.8670    25.8590 hc         1 W8I       0.055450
     33 H6          15.9230   -22.7620    25.8670 h1         1 W8I       0.063950
     34 H7          15.9540   -22.6700    24.1080 h1         1 W8I       0.063950
     35 H8          18.2270   -25.7820    23.8960 h1         1 W8I       0.063950
     36 H9          17.4430   -24.6100    22.8260 h1         1 W8I       0.063950
     37 H10         16.1710   -26.7310    22.8820 hc         1 W8I       0.055450
     38 H11         16.1230   -26.7080    24.6400 hc         1 W8I       0.055450
     39 H12         20.3370   -20.7050    30.0070 ha         1 W8I       0.136000
     40 H14         18.2910   -21.6470    28.9080 ha         1 W8I       0.136000
     41 H15         19.8910   -24.3010    23.9640 h4         1 W8I       0.031100
     42 H16         25.3310   -20.5420    27.3820 ha         1 W8I       0.132000
     43 H17         27.0340   -24.5060    27.4380 ha         1 W8I       0.133000
     44 H18         14.0350   -27.1520    23.9820 hn         1 W8I       0.395500
     45 H19         13.1690   -26.0190    24.7300 hn         1 W8I       0.395500
     46 H13         27.0420   -22.1630    26.5870 ha         1 W8I       0.125000
@<TRIPOS>BOND
     1     1     7 1   
     2     1    28 1   
     3     1    29 1   
     4     1    30 1   
     5     2    12 ar  
     6     2    17 ar  
     7     3     4 1   
     8     3     7 1   
     9     3    31 1   
    10     3    32 1   
    11     4    23 1   
    12     4    33 1   
    13     4    34 1   
    14     5     6 1   
    15     5    23 1   
    16     5    35 1   
    17     5    36 1   
    18     6     7 1   
    19     6    37 1   
    20     6    38 1   
    21     7    24 1   
    22     8    13 ar  
    23     8    14 ar  
    24     9    11 ar  
    25     9    21 ar  
    26     9    39 1   
    27    10    16 ar  
    28    10    18 ar  
    29    10    46 1   
    30    11    17 ar  
    31    11    40 1   
    32    12    13 ar  
    33    12    23 1   
    34    13    41 1   
    35    14    17 ar  
    36    14    22 ar  
    37    15    16 ar  
    38    15    20 ar  
    39    15    25 1   
    40    16    42 1   
    41    18    19 ar  
    42    18    43 1   
    43    19    20 ar  
    44    19    27 1   
    45    20    26 1   
    46    21    22 ar  
    47    21    25 1   
    48    24    44 1   
    49    24    45 1   
@<TRIPOS>SUBSTRUCTURE
     1 W8I         1 TEMP              0 ****  ****    0 ROOT
