@<TRIPOS>MOLECULE
W8J
   35    37     1     0     0
SMALL
abcg2


@<TRIPOS>ATOM
      1 C10        -45.7560   -30.8990     1.7160 c3         1 W8J      -0.093400
      2 C13        -42.8160   -31.7910     2.1420 c5         1 W8J       0.144600
      3 C15        -41.6910   -31.1560     0.2220 c5         1 W8J       0.150600
      4 C17        -47.3880   -28.4860     3.3650 cc         1 W8J       0.590400
      5 C02        -47.9470   -28.6900     5.5870 cd         1 W8J       0.738900
      6 C03        -46.7970   -29.4620     5.7830 cc         1 W8J      -0.111600
      7 C05        -45.1680   -30.6350     6.3720 cd         1 W8J       0.531200
      8 C07        -45.9650   -29.7160     4.6880 cc         1 W8J      -0.093000
      9 C09        -45.4460   -29.5210     2.2890 c3         1 W8J       0.062600
     10 C11        -44.7950   -31.2690     0.5810 c3         1 W8J      -0.062400
     11 C12        -43.6810   -32.2430     0.9740 c5         1 W8J      -0.097700
     12 C16        -42.6120   -32.3330    -0.1170 c5         1 W8J      -0.113400
     13 N01        -48.8060   -28.3940     6.5550 nv         1 W8J      -1.039900
     14 N04        -46.2570   -30.0720     6.8730 nc         1 W8J      -0.595100
     15 N06        -44.9280   -30.4590     5.0500 nd         1 W8J      -0.437300
     16 N08        -46.2690   -29.2130     3.4550 na         1 W8J      -0.148500
     17 N18        -48.2030   -28.2150     4.3460 nd         1 W8J      -0.815000
     18 O14        -41.9040   -30.8530     1.5960 os         1 W8J      -0.461000
     19 H101       -46.7870   -30.8940     1.3560 hc         1 W8J       0.057200
     20 H102       -45.7110   -31.6480     2.5120 hc         1 W8J       0.057200
     21 H131       -42.2850   -32.6570     2.5620 h1         1 W8J       0.062200
     22 H151       -40.6400   -31.3990     0.0430 h1         1 W8J       0.040200
     23 H152       -41.9320   -30.2730    -0.3780 h1         1 W8J       0.040200
     24 H171       -47.6170   -28.0950     2.3810 h5         1 W8J       0.047100
     25 H051       -44.4890   -31.2140     6.9860 h5         1 W8J       0.051800
     26 H092       -44.4020   -29.4330     2.5890 h1         1 W8J       0.074700
     27 H091       -45.6290   -28.7490     1.5420 h1         1 W8J       0.074700
     28 H112       -44.3660   -30.3570     0.1500 hc         1 W8J       0.042700
     29 H111       -45.3590   -31.7300    -0.2330 hc         1 W8J       0.042700
     30 H121       -44.1250   -33.2190     1.1870 hc         1 W8J       0.063700
     31 H161       -42.0740   -33.2800    -0.0480 hc         1 W8J       0.052700
     32 H162       -43.0210   -32.2610    -1.1250 hc         1 W8J       0.052700
     33 H012       -49.6190   -27.8340     6.3640 hn         1 W8J       0.513500
     34 H011       -48.6630   -28.7240     7.4940 hn         1 W8J       0.513500
     35 H132       -43.3650   -31.3200     2.9600 h1         1 W8J       0.062200
@<TRIPOS>BOND
     1     1     9 1   
     2     1    10 1   
     3     1    19 1   
     4     1    20 1   
     5     2    11 1   
     6     2    18 1   
     7     2    21 1   
     8     2    35 1   
     9     3    12 1   
    10     3    18 1   
    11     3    22 1   
    12     3    23 1   
    13     4    16 1   
    14     4    17 2   
    15     4    24 1   
    16     5     6 2   
    17     5    13 1   
    18     5    17 1   
    19     6     8 1   
    20     6    14 1   
    21     7    14 2   
    22     7    15 1   
    23     7    25 1   
    24     8    15 2   
    25     8    16 1   
    26     9    16 1   
    27     9    26 1   
    28     9    27 1   
    29    10    11 1   
    30    10    28 1   
    31    10    29 1   
    32    11    12 1   
    33    11    30 1   
    34    12    31 1   
    35    12    32 1   
    36    13    33 1   
    37    13    34 1   
@<TRIPOS>SUBSTRUCTURE
     1 W8J         1 TEMP              0 ****  ****    0 ROOT
