@<TRIPOS>MOLECULE
W8J
   35    37     1     0     0
SMALL
No Charge or Current Charge


@<TRIPOS>ATOM
      1 C10        -45.7390   -30.8500     1.7230 c3         1 W8J      -0.093400
      2 C13        -42.5920   -31.6800     2.0100 c5         1 W8J       0.144600
      3 C15        -41.6350   -31.2610    -0.0770 c5         1 W8J       0.150600
      4 C17        -47.4210   -28.4230     3.4430 cc         1 W8J       0.590400
      5 C02        -48.0020   -28.5990     5.6970 cd         1 W8J       0.738900
      6 C03        -46.8960   -29.3990     5.8840 cc         1 W8J      -0.111600
      7 C05        -45.3210   -30.6560     6.5680 cd         1 W8J       0.531200
      8 C07        -46.0580   -29.7000     4.8660 cc         1 W8J      -0.093000
      9 C09        -45.3680   -29.5300     2.4410 c3         1 W8J       0.062600
     10 C11        -44.7720   -31.2440     0.5790 c3         1 W8J      -0.062400
     11 C12        -43.6120   -32.2090     0.9710 c5         1 W8J      -0.097700
     12 C16        -42.6110   -32.4740    -0.1890 c5         1 W8J      -0.113400
     13 N01        -48.9030   -28.2430     6.6080 nv         1 W8J      -1.039900
     14 N04        -46.4300   -30.0180     7.0060 nc         1 W8J      -0.595100
     15 N06        -45.0560   -30.4710     5.1950 nd         1 W8J      -0.437300
     16 N08        -46.2580   -29.2290     3.5820 na         1 W8J      -0.148500
     17 N18        -48.2810   -28.1080     4.4490 nd         1 W8J      -0.815000
     18 O14        -41.8320   -30.7200     1.2510 os         1 W8J      -0.461000
     19 H101       -46.7470   -30.7380     1.3060 hc         1 W8J       0.057200
     20 H102       -45.7960   -31.6670     2.4530 hc         1 W8J       0.057200
     21 H131       -41.9180   -32.4770     2.3570 h1         1 W8J       0.062200
     22 H151       -40.5880   -31.5650    -0.2040 h1         1 W8J       0.040200
     23 H152       -41.8670   -30.4780    -0.8120 h1         1 W8J       0.040200
     24 H171       -47.6110   -28.0480     2.4450 h5         1 W8J       0.047100
     25 H051       -44.6780   -31.2620     7.1970 h5         1 W8J       0.051800
     26 H092       -44.3340   -29.5650     2.8010 h1         1 W8J       0.074700
     27 H091       -45.4230   -28.7030     1.7210 h1         1 W8J       0.074700
     28 H112       -44.3790   -30.3320     0.1120 hc         1 W8J       0.042700
     29 H111       -45.3670   -31.7360    -0.2010 hc         1 W8J       0.042700
     30 H121       -44.0730   -33.1420     1.3150 hc         1 W8J       0.063700
     31 H161       -42.0720   -33.4170    -0.0410 hc         1 W8J       0.052700
     32 H162       -43.0960   -32.5320    -1.1700 hc         1 W8J       0.052700
     33 H012       -49.7940   -27.9700     6.2170 hn         1 W8J       0.513500
     34 H011       -48.9360   -28.8350     7.4290 hn         1 W8J       0.513500
     35 H132       -43.0470   -31.2120     2.8910 h1         1 W8J       0.062200
@<TRIPOS>BOND
     1     1     9 1   
     2     1    10 1   
     3     1    19 1   
     4     1    20 1   
     5     2    11 1   
     6     2    18 1   
     7     2    21 1   
     8     2    35 1   
     9     3    12 1   
    10     3    18 1   
    11     3    22 1   
    12     3    23 1   
    13     4    16 1   
    14     4    17 2   
    15     4    24 1   
    16     5     6 2   
    17     5    13 1   
    18     5    17 1   
    19     6     8 1   
    20     6    14 1   
    21     7    14 2   
    22     7    15 1   
    23     7    25 1   
    24     8    15 2   
    25     8    16 1   
    26     9    16 1   
    27     9    26 1   
    28     9    27 1   
    29    10    11 1   
    30    10    28 1   
    31    10    29 1   
    32    11    12 1   
    33    11    30 1   
    34    12    31 1   
    35    12    32 1   
    36    13    33 1   
    37    13    34 1   
@<TRIPOS>SUBSTRUCTURE
     1 W8J         1 TEMP              0 ****  ****    0 ROOT
