@<TRIPOS>MOLECULE
W8K
   22    22     1     0     0
SMALL
No Charge or Current Charge


@<TRIPOS>ATOM
      1 C7          24.7280    15.4160    38.0910 ca         1 W8K      -0.008900
      2 C8          25.9040    16.1390    38.3560 ca         1 W8K      -0.082000
      3 C1          30.3800    16.4760    39.2260 c          1 W8K       0.594100
      4 C5          25.0670    14.1110    40.1140 ca         1 W8K      -0.110000
      5 C6          24.3070    14.4030    38.9690 ca         1 W8K      -0.082000
      6 C4          26.2450    14.8330    40.3810 ca         1 W8K      -0.081000
      7 C3          26.6680    15.8520    39.5040 ca         1 W8K      -0.108300
      8 C2          27.9430    16.6290    39.7890 c3         1 W8K       0.144300
      9 Br          23.6970    15.8130    36.5300 br         1 W8K      -0.113100
     10 N           29.0960    15.9960    39.1530 ns         1 W8K      -0.509900
     11 O           30.6660    17.4920    39.8410 o          1 W8K      -0.609100
     12 C           31.4180    15.6460    38.4820 c3         1 W8K      -0.176100
     13 H1          26.2220    16.9200    37.6690 ha         1 W8K       0.127000
     14 H2          24.7450    13.3260    40.7950 ha         1 W8K       0.120000
     15 H3          23.3970    13.8450    38.7620 ha         1 W8K       0.131000
     16 H4          26.8290    14.5990    41.2690 ha         1 W8K       0.127000
     17 H5          28.1140    16.6810    40.8730 h1         1 W8K       0.068700
     18 H6          27.8450    17.6560    39.4130 h1         1 W8K       0.068700
     19 H7          28.9490    15.1460    38.6220 hn         1 W8K       0.313500
     20 H8          32.4290    16.0610    38.5630 hc         1 W8K       0.061700
     21 H9          31.3740    14.6120    38.8440 hc         1 W8K       0.061700
     22 H10         31.1070    15.5400    37.4360 hc         1 W8K       0.061700
@<TRIPOS>BOND
     1     1     2 ar  
     2     1     5 ar  
     3     1     9 1   
     4     2     7 ar  
     5     2    13 1   
     6     3    10 1   
     7     3    11 2   
     8     3    12 1   
     9     4     5 ar  
    10     4     6 ar  
    11     4    14 1   
    12     5    15 1   
    13     6     7 ar  
    14     6    16 1   
    15     7     8 1   
    16     8    10 1   
    17     8    17 1   
    18     8    18 1   
    19    10    19 1   
    20    12    20 1   
    21    12    21 1   
    22    12    22 1   
@<TRIPOS>SUBSTRUCTURE
     1 W8K         1 TEMP              0 ****  ****    0 ROOT
