@<TRIPOS>MOLECULE
W8K
   22    22     1     0     0
SMALL
abcg2


@<TRIPOS>ATOM
      1 C7          24.4130    15.5350    38.5360 ca         1 W8K      -0.008900
      2 C8          25.5090    16.3800    38.4310 ca         1 W8K      -0.082000
      3 C1          30.0780    16.0230    39.6370 c          1 W8K       0.594100
      4 C5          25.6730    13.9950    39.8500 ca         1 W8K      -0.110000
      5 C6          24.4710    14.3420    39.2390 ca         1 W8K      -0.082000
      6 C4          26.7810    14.8270    39.7570 ca         1 W8K      -0.081000
      7 C3          26.7070    16.0270    39.0490 ca         1 W8K      -0.108300
      8 C2          27.8930    16.9630    38.9700 c3         1 W8K       0.144300
      9 BR          22.7730    16.0310    37.6720 br         1 W8K      -0.113100
     10 N           29.1490    16.2900    38.6950 ns         1 W8K      -0.509900
     11 O           29.9380    16.3400    40.8200 o          1 W8K      -0.609100
     12 C           31.3150    15.3010    39.1570 c3         1 W8K      -0.176100
     13 H1          25.4390    17.3030    37.8700 ha         1 W8K       0.127000
     14 H2          25.7370    13.0670    40.4040 ha         1 W8K       0.120000
     15 H3          23.6070    13.6960    39.3090 ha         1 W8K       0.131000
     16 H4          27.7080    14.5430    40.2370 ha         1 W8K       0.127000
     17 H5          28.0120    17.4880    39.9180 h1         1 W8K       0.068700
     18 H6          27.7180    17.7110    38.1960 h1         1 W8K       0.068700
     19 H7          29.3150    15.9760    37.7520 hn         1 W8K       0.313500
     20 H8          32.1940    15.8660    39.4690 hc         1 W8K       0.061700
     21 H9          31.3580    14.3230    39.6390 hc         1 W8K       0.061700
     22 H10         31.3380    15.1660    38.0760 hc         1 W8K       0.061700
@<TRIPOS>BOND
     1     1     2 ar  
     2     1     5 ar  
     3     1     9 1   
     4     2     7 ar  
     5     2    13 1   
     6     3    10 1   
     7     3    11 2   
     8     3    12 1   
     9     4     5 ar  
    10     4     6 ar  
    11     4    14 1   
    12     5    15 1   
    13     6     7 ar  
    14     6    16 1   
    15     7     8 1   
    16     8    10 1   
    17     8    17 1   
    18     8    18 1   
    19    10    19 1   
    20    12    20 1   
    21    12    21 1   
    22    12    22 1   
@<TRIPOS>SUBSTRUCTURE
     1 W8K         1 TEMP              0 ****  ****    0 ROOT
