@<TRIPOS>MOLECULE
W8L
   31    33     1     0     0
SMALL
No Charge or Current Charge


@<TRIPOS>ATOM
      1 CAH         -0.9700    -0.8380    -0.0030 cc         1 W8L      -0.245200
      2 CAG         -2.4250    -0.6210    -0.0110 ca         1 W8L       0.015200
      3 CAB         -3.3300    -1.7160    -0.0160 ca         1 W8L      -0.086300
      4 CAA         -2.8420    -3.1630    -0.0140 c3         1 W8L      -0.045800
      5 CAC         -4.7180    -1.4740    -0.0230 ca         1 W8L      -0.078000
      6 CAD         -5.2140    -0.1620    -0.0250 ca         1 W8L      -0.129000
      7 CAE         -4.3250     0.9210    -0.0210 ca         1 W8L      -0.049000
      8 CAF         -2.9330     0.6950    -0.0130 ca         1 W8L      -0.163600
      9 CAK         -1.9800     1.8470    -0.0090 c          1 W8L       0.573600
     10 OAL         -2.3380     3.0160    -0.0150 o          1 W8L      -0.555000
     11 NAJ         -0.6520     1.5210    -0.0010 ns         1 W8L      -0.384100
     12 CAI         -0.1070     0.2510     0.0070 cd         1 W8L       0.114400
     13 CAM          1.3830     0.1370     0.0040 ca         1 W8L      -0.070800
     14 CAN          2.1990     1.2960     0.0850 ca         1 W8L      -0.084000
     15 CAO          3.6020     1.2020     0.0840 ca         1 W8L      -0.103000
     16 CAP          4.2230    -0.0500     0.0000 ca         1 W8L       0.129000
     17 Cl           5.9780    -0.1660    -0.0020 cl         1 W8L      -0.192000
     18 CAR          3.4420    -1.2090    -0.0820 ca         1 W8L      -0.103000
     19 CAS          2.0390    -1.1200    -0.0800 ca         1 W8L      -0.084000
     20 HAH         -0.5750    -1.8430     0.0080 ha         1 W8L       0.198000
     21 HAA1        -2.2420    -3.3760     0.8790 hc         1 W8L       0.043033
     22 HAA2        -3.6760    -3.8750    -0.0220 hc         1 W8L       0.043033
     23 HAA3        -2.2280    -3.3730    -0.8980 hc         1 W8L       0.043033
     24 HAC         -5.4190    -2.3050    -0.0270 ha         1 W8L       0.112000
     25 HAD         -6.2870     0.0140    -0.0310 ha         1 W8L       0.119000
     26 HAE         -4.7200     1.9350    -0.0230 ha         1 W8L       0.137000
     27 HAJ         -0.0400     2.3240    -0.0050 hn         1 W8L       0.327500
     28 HAN          1.7650     2.2900     0.1570 ha         1 W8L       0.124500
     29 HAS          1.4840    -2.0480    -0.1530 ha         1 W8L       0.124500
     30 HAO          4.2080     2.1020     0.1480 ha         1 W8L       0.134500
     31 HAR          3.9240    -2.1810    -0.1490 ha         1 W8L       0.134500
@<TRIPOS>BOND
     1     1     2 1   
     2     1    12 2   
     3     1    20 1   
     4     2     3 ar  
     5     2     8 ar  
     6     3     4 1   
     7     3     5 ar  
     8     4    21 1   
     9     4    22 1   
    10     4    23 1   
    11     5     6 ar  
    12     5    24 1   
    13     6     7 ar  
    14     6    25 1   
    15     7     8 ar  
    16     7    26 1   
    17     8     9 1   
    18     9    10 2   
    19     9    11 1   
    20    11    12 1   
    21    11    27 1   
    22    12    13 1   
    23    13    14 ar  
    24    13    19 ar  
    25    14    15 ar  
    26    14    28 1   
    27    15    16 ar  
    28    15    30 1   
    29    16    17 1   
    30    16    18 ar  
    31    18    19 ar  
    32    18    31 1   
    33    19    29 1   
@<TRIPOS>SUBSTRUCTURE
     1 W8L         1 TEMP              0 ****  ****    0 ROOT
