@<TRIPOS>MOLECULE
W8L
   31    33     1     0     0
SMALL
bcc


@<TRIPOS>ATOM
      1 CAH         -0.9560    -0.8040     0.0350 cc         1 W8L      -0.195200
      2 CAG         -2.3750    -0.6200     0.0020 ca         1 W8L       0.015200
      3 CAB         -3.2700    -1.7090     0.1310 ca         1 W8L      -0.086300
      4 CAA         -2.7570    -3.1080     0.3000 c3         1 W8L      -0.045800
      5 CAC         -4.6270    -1.4550     0.0970 ca         1 W8L      -0.096000
      6 CAD         -5.1330    -0.1610    -0.0600 ca         1 W8L      -0.147000
      7 CAE         -4.2700     0.9020    -0.1850 ca         1 W8L      -0.067000
      8 CAF         -2.8900     0.6800    -0.1540 ca         1 W8L      -0.163600
      9 CAK         -1.9870     1.8220    -0.2980 c          1 W8L       0.716100
     10 OAL         -2.3540     2.9790    -0.4510 o          1 W8L      -0.630500
     11 NAJ         -0.6530     1.5120    -0.2640 ns         1 W8L      -0.451100
     12 CAI         -0.1260     0.2560    -0.0990 cd         1 W8L       0.114400
     13 CAM          1.3400     0.1480    -0.0530 ca         1 W8L      -0.070800
     14 CAN          2.1210     1.1500     0.5250 ca         1 W8L      -0.102000
     15 CAO          3.5000     1.0360     0.5790 ca         1 W8L      -0.121000
     16 CAP          4.1070    -0.0910     0.0480 ca         1 W8L       0.037400
     17 CL           5.8300    -0.2390     0.1080 cl         1 W8L      -0.100400
     18 CAR          3.3540    -1.1000    -0.5330 ca         1 W8L      -0.121000
     19 CAS          1.9770    -0.9730    -0.5830 ca         1 W8L      -0.102000
     20 HAH         -0.5360    -1.7850     0.2030 ha         1 W8L       0.148000
     21 HAA1        -2.1260    -3.2020     1.1850 hc         1 W8L       0.043033
     22 HAA2        -3.5790    -3.8130     0.4020 hc         1 W8L       0.043033
     23 HAA3        -2.1550    -3.4230    -0.5550 hc         1 W8L       0.043033
     24 HAC         -5.3190    -2.2820     0.1920 ha         1 W8L       0.130000
     25 HAD         -6.2030    -0.0020    -0.0810 ha         1 W8L       0.137000
     26 HAE         -4.6490     1.9080    -0.3080 ha         1 W8L       0.155000
     27 HAJ         -0.0220     2.2860    -0.4210 hn         1 W8L       0.327500
     28 HAN          1.6630     2.0260     0.9670 ha         1 W8L       0.142500
     29 HAS          1.3980    -1.7530    -1.0610 ha         1 W8L       0.142500
     30 HAO          4.0900     1.8170     1.0370 ha         1 W8L       0.152500
     31 HAR          3.8340    -1.9730    -0.9550 ha         1 W8L       0.152500
@<TRIPOS>BOND
     1     1     2 1   
     2     1    12 2   
     3     1    20 1   
     4     2     3 ar  
     5     2     8 ar  
     6     3     4 1   
     7     3     5 ar  
     8     4    21 1   
     9     4    22 1   
    10     4    23 1   
    11     5     6 ar  
    12     5    24 1   
    13     6     7 ar  
    14     6    25 1   
    15     7     8 ar  
    16     7    26 1   
    17     8     9 1   
    18     9    10 2   
    19     9    11 1   
    20    11    12 1   
    21    11    27 1   
    22    12    13 1   
    23    13    14 ar  
    24    13    19 ar  
    25    14    15 ar  
    26    14    28 1   
    27    15    16 ar  
    28    15    30 1   
    29    16    17 1   
    30    16    18 ar  
    31    18    19 ar  
    32    18    31 1   
    33    19    29 1   
@<TRIPOS>SUBSTRUCTURE
     1 W8L         1 TEMP              0 ****  ****    0 ROOT
