@<TRIPOS>MOLECULE
W8N
   34    34     1     0     0
SMALL
No Charge or Current Charge


@<TRIPOS>ATOM
      1 C01          0.7650    -3.3340   -15.4080 ca         1 W8N      -0.152600
      2 C02          2.1010    -3.7680   -14.8480 c          1 W8N       0.592700
      3 C04          0.6180    -2.1730   -16.1990 ca         1 W8N      -0.052000
      4 C05          3.4050    -3.5540   -15.6500 c3         1 W8N      -0.154400
      5 C07         -1.6460    -3.7260   -15.6010 ca         1 W8N      -0.019900
      6 C10         -1.7870    -2.5710   -16.4000 ca         1 W8N      -0.045300
      7 C13          3.9190    -6.0670   -15.5890 c3         1 W8N      -0.085600
      8 C15         -3.1460    -2.1470   -16.9440 c3         1 W8N      -0.046800
      9 C16          3.0210    -4.0700   -18.8570 c          1 W8N       0.707000
     10 C03         -0.3830    -4.0980   -15.1080 ca         1 W8N      -0.037000
     11 O06          2.1470    -4.2870   -13.7370 o          1 W8N      -0.522100
     12 C08         -0.6460    -1.8000   -16.6890 ca         1 W8N      -0.131000
     13 C09          3.8720    -4.7970   -16.4870 c3         1 W8N      -0.007000
     14 Br11        -3.1600    -4.8210   -15.1600 br         1 W8N      -0.142100
     15 C12          2.9130    -5.0870   -17.6980 c3         1 W8N      -0.198400
     16 C14          5.3210    -4.5290   -16.9840 c3         1 W8N      -0.085600
     17 O17          3.7990    -4.3100   -19.7680 o          1 W8N      -0.745000
     18 O18          2.3130    -3.0760   -18.8280 o          1 W8N      -0.745000
     19 H20          1.4700    -1.5400   -16.4300 ha         1 W8N       0.128000
     20 H21          3.2870    -2.7230   -16.3490 hc         1 W8N       0.066200
     21 H22          4.1940    -3.3060   -14.9310 hc         1 W8N       0.066200
     22 H27          4.3830    -6.9070   -16.1220 hc         1 W8N       0.025033
     23 H26          4.5050    -5.8850   -14.6800 hc         1 W8N       0.025033
     24 H28          2.9130    -6.3860   -15.2910 hc         1 W8N       0.025033
     25 H34         -3.8530    -1.9510   -16.1300 hc         1 W8N       0.044700
     26 H33         -3.0760    -1.2320   -17.5450 hc         1 W8N       0.044700
     27 H32         -3.5750    -2.9260   -17.5850 hc         1 W8N       0.044700
     28 H19         -0.2970    -4.9920   -14.4930 ha         1 W8N       0.151000
     29 H23         -0.7340    -0.9030   -17.2960 ha         1 W8N       0.108000
     30 H24          3.2040    -6.0740   -18.0810 hc         1 W8N       0.033700
     31 H25          1.8950    -5.0750   -17.2940 hc         1 W8N       0.033700
     32 H29          5.6720    -5.3420   -17.6320 hc         1 W8N       0.025033
     33 H31          5.3840    -3.5910   -17.5480 hc         1 W8N       0.025033
     34 H30          6.0170    -4.4510   -16.1400 hc         1 W8N       0.025033
@<TRIPOS>BOND
     1     1     2 1   
     2     1     3 ar  
     3     1    10 ar  
     4     2     4 1   
     5     2    11 2   
     6     3    12 ar  
     7     3    19 1   
     8     4    13 1   
     9     4    20 1   
    10     4    21 1   
    11     5     6 ar  
    12     5    10 ar  
    13     5    14 1   
    14     6     8 1   
    15     6    12 ar  
    16     7    13 1   
    17     7    22 1   
    18     7    23 1   
    19     7    24 1   
    20     8    25 1   
    21     8    26 1   
    22     8    27 1   
    23     9    15 1   
    24     9    17 1   
    25     9    18 1   
    26    10    28 1   
    27    12    29 1   
    28    13    15 1   
    29    13    16 1   
    30    15    30 1   
    31    15    31 1   
    32    16    32 1   
    33    16    33 1   
    34    16    34 1   
@<TRIPOS>SUBSTRUCTURE
     1 W8N         1 TEMP              0 ****  ****    0 ROOT
