@<TRIPOS>MOLECULE
W8N
   34    34     1     0     0
SMALL
abcg2


@<TRIPOS>ATOM
      1 C01          0.3580    -3.5750   -16.0530 ca         1 W8N      -0.152600
      2 C02          1.5210    -4.5210   -16.0130 c          1 W8N       0.592700
      3 C04          0.4780    -2.2300   -16.4100 ca         1 W8N      -0.052000
      4 C05          2.8760    -3.9630   -16.3760 c3         1 W8N      -0.154400
      5 C07         -2.0030    -3.2290   -15.7440 ca         1 W8N      -0.019900
      6 C10         -1.9120    -1.8790   -16.0990 ca         1 W8N      -0.045300
      7 C13          4.4000    -5.5060   -15.0780 c3         1 W8N      -0.085600
      8 C15         -3.0980    -0.9640   -16.1340 c3         1 W8N      -0.046800
      9 C16          3.2140    -5.7960   -18.8310 c          1 W8N       0.707000
     10 C03         -0.9050    -4.0670   -15.7160 ca         1 W8N      -0.037000
     11 O06          1.3380    -5.6860   -15.6950 o          1 W8N      -0.522100
     12 C08         -0.6390    -1.4080   -16.4280 ca         1 W8N      -0.131000
     13 C09          4.0750    -4.9230   -16.4620 c3         1 W8N      -0.007000
     14 BR11        -3.7100    -3.9770   -15.2720 br         1 W8N      -0.142100
     15 C12          3.8190    -6.0890   -17.4410 c3         1 W8N      -0.198400
     16 C14          5.2860    -4.0950   -16.9220 c3         1 W8N      -0.085600
     17 O17          3.3690    -4.6580   -19.3460 o          1 W8N      -0.745000
     18 O18          2.6160    -6.7640   -19.3750 o          1 W8N      -0.745000
     19 H20          1.4380    -1.8150   -16.6760 ha         1 W8N       0.128000
     20 H21          2.7680    -3.4610   -17.3400 hc         1 W8N       0.066200
     21 H22          3.0970    -3.1710   -15.6510 hc         1 W8N       0.066200
     22 H27          5.2760    -6.1560   -15.1390 hc         1 W8N       0.025033
     23 H26          4.6260    -4.7050   -14.3680 hc         1 W8N       0.025033
     24 H28          3.5680    -6.0880   -14.6840 hc         1 W8N       0.025033
     25 H34         -3.5810    -0.9110   -15.1550 hc         1 W8N       0.044700
     26 H33         -2.7970     0.0400   -16.4290 hc         1 W8N       0.044700
     27 H32         -3.8490    -1.3250   -16.8400 hc         1 W8N       0.044700
     28 H19         -1.0080    -5.1060   -15.4370 ha         1 W8N       0.151000
     29 H23         -0.5300    -0.3670   -16.7070 ha         1 W8N       0.108000
     30 H24          4.7760    -6.5910   -17.6230 hc         1 W8N       0.033700
     31 H25          3.1760    -6.8270   -16.9640 hc         1 W8N       0.033700
     32 H29          6.1770    -4.7270   -16.9660 hc         1 W8N       0.025033
     33 H31          5.1110    -3.6760   -17.9110 hc         1 W8N       0.025033
     34 H30          5.4840    -3.2810   -16.2200 hc         1 W8N       0.025033
@<TRIPOS>BOND
     1     1     2 1   
     2     1     3 ar  
     3     1    10 ar  
     4     2     4 1   
     5     2    11 2   
     6     3    12 ar  
     7     3    19 1   
     8     4    13 1   
     9     4    20 1   
    10     4    21 1   
    11     5     6 ar  
    12     5    10 ar  
    13     5    14 1   
    14     6     8 1   
    15     6    12 ar  
    16     7    13 1   
    17     7    22 1   
    18     7    23 1   
    19     7    24 1   
    20     8    25 1   
    21     8    26 1   
    22     8    27 1   
    23     9    15 1   
    24     9    17 1   
    25     9    18 1   
    26    10    28 1   
    27    12    29 1   
    28    13    15 1   
    29    13    16 1   
    30    15    30 1   
    31    15    31 1   
    32    16    32 1   
    33    16    33 1   
    34    16    34 1   
@<TRIPOS>SUBSTRUCTURE
     1 W8N         1 TEMP              0 ****  ****    0 ROOT
