@<TRIPOS>MOLECULE
W8P
   55    58     1     0     0
SMALL
No Charge or Current Charge


@<TRIPOS>ATOM
      1 C10        -10.1730    57.9710    -0.8610 ca         1 W8P       0.007000
      2 C13         -7.4670    58.4060    -0.4260 ca         1 W8P      -0.067200
      3 C15        -12.7540    57.5570    -1.2620 cg         1 W8P      -0.094000
      4 C17        -15.0470    58.3970    -1.5730 ca         1 W8P      -0.090500
      5 C20        -18.4090    56.6210    -2.0930 c3         1 W8P       0.123900
      6 C22        -18.6080    55.2670    -4.2310 cc         1 W8P      -0.219000
      7 C26        -19.5930    53.9400    -0.9160 c3         1 W8P       0.136300
      8 C28        -16.0090    55.7650    -1.7640 ca         1 W8P      -0.091000
      9 S02         -2.4880    57.4050    -1.1070 ss         1 W8P      -0.418000
     10 C03         -4.1380    58.1910    -1.4320 c3         1 W8P       0.240700
     11 C04         -4.9620    58.1840    -0.1260 c3         1 W8P       0.091600
     12 N05         -6.2220    58.9370    -0.2430 na         1 W8P       0.063600
     13 N06         -6.2930    60.3180    -0.3520 nc         1 W8P      -0.168400
     14 N07         -7.5660    60.6500    -0.5740 nd         1 W8P      -0.208400
     15 C08         -8.2890    59.4670    -0.6290 ca         1 W8P       0.007400
     16 C09         -9.6620    59.2900    -0.8520 ca         1 W8P      -0.001000
     17 C11         -9.3050    56.8710    -0.6450 ca         1 W8P      -0.053000
     18 C12         -7.9270    57.0810    -0.4210 ca         1 W8P      -0.126000
     19 C14        -11.5620    57.7480    -1.0850 ch         1 W8P      -0.107000
     20 C16        -14.1530    57.3170    -1.4680 ca         1 W8P       0.037000
     21 C18        -16.4180    58.1620    -1.7750 ca         1 W8P      -0.091000
     22 C19        -16.9110    56.8460    -1.8770 ca         1 W8P      -0.109300
     23 N21        -18.7480    55.4110    -2.8660 na         1 W8P      -0.153500
     24 C23        -19.0280    53.9940    -4.5150 cd         1 W8P       0.229900
     25 N24        -19.4320    53.3480    -3.3670 nd         1 W8P      -0.662000
     26 C25        -19.2540    54.2160    -2.3770 cc         1 W8P       0.389800
     27 O27        -18.4260    53.7820    -0.0780 oh         1 W8P      -0.662000
     28 C29        -14.6380    56.0010    -1.5620 ca         1 W8P      -0.090500
     29 N30         -4.8750    57.6050    -2.5780 n          1 W8P      -0.300300
     30 O31         -4.8560    56.1590    -2.7170 oh         1 W8P      -0.426100
     31 C32         -5.5360    58.4100    -3.5380 c          1 W8P       0.601900
     32 O33         -6.1420    57.9410    -4.4960 o          1 W8P      -0.549100
     33 H1         -14.6810    59.4190    -1.4990 ha         1 W8P       0.123500
     34 H2         -18.8290    57.4850    -2.6240 h1         1 W8P       0.064700
     35 H3         -18.9020    56.5770    -1.1140 h1         1 W8P       0.064700
     36 H4         -18.2280    56.0470    -4.8780 h4         1 W8P       0.159000
     37 H5         -20.2170    54.7630    -0.5440 h1         1 W8P       0.042700
     38 H6         -20.2090    53.0320    -0.8710 h1         1 W8P       0.042700
     39 H7         -16.3630    54.7390    -1.8280 ha         1 W8P       0.127000
     40 H8          -0.6290    57.3170    -2.6990 h1         1 W8P       0.068033
     41 H9          -2.2040    57.2090    -3.5350 h1         1 W8P       0.068033
     42 H10         -1.6150    58.7880    -2.9360 h1         1 W8P       0.068033
     43 H11         -3.9360    59.2370    -1.6930 h2         1 W8P       0.093700
     44 H12         -5.1760    57.1510     0.1670 h1         1 W8P       0.091200
     45 H13         -4.3680    58.6400     0.6740 h1         1 W8P       0.091200
     46 H14        -10.3120    60.1460    -1.0130 ha         1 W8P       0.144000
     47 H15         -9.7000    55.8570    -0.6480 ha         1 W8P       0.127000
     48 H16         -7.2590    56.2410    -0.2470 ha         1 W8P       0.133000
     49 H17        -17.0990    59.0080    -1.8530 ha         1 W8P       0.127000
     50 H18        -19.0640    53.5100    -5.4840 h4         1 W8P       0.039100
     51 H19        -18.7460    53.5660     0.8270 ho         1 W8P       0.447000
     52 H20        -13.9540    55.1600    -1.4780 ha         1 W8P       0.123500
     53 H21         -5.7040    55.8440    -2.3320 ho         1 W8P       0.453000
     54 H22         -5.4540    59.4930    -3.3280 h5         1 W8P       0.026200
     55 C01         -1.6530    57.7110    -2.7300 c3         1 W8P       0.038900
@<TRIPOS>BOND
     1     1    16 ar  
     2     1    17 ar  
     3     1    19 1   
     4     2    12 1   
     5     2    15 ar  
     6     2    18 ar  
     7     3    19 3   
     8     3    20 1   
     9     4    20 ar  
    10     4    21 ar  
    11     4    33 1   
    12     5    22 1   
    13     5    23 1   
    14     5    34 1   
    15     5    35 1   
    16     6    23 1   
    17     6    24 2   
    18     6    36 1   
    19     7    26 1   
    20     7    27 1   
    21     7    37 1   
    22     7    38 1   
    23     8    22 ar  
    24     8    28 ar  
    25     8    39 1   
    26     9    10 1   
    27     9    55 1   
    28    10    11 1   
    29    10    29 1   
    30    10    43 1   
    31    11    12 1   
    32    11    44 1   
    33    11    45 1   
    34    12    13 1   
    35    13    14 2   
    36    14    15 1   
    37    15    16 ar  
    38    16    46 1   
    39    17    18 ar  
    40    17    47 1   
    41    18    48 1   
    42    20    28 ar  
    43    21    22 ar  
    44    21    49 1   
    45    23    26 1   
    46    24    25 1   
    47    24    50 1   
    48    25    26 2   
    49    27    51 1   
    50    28    52 1   
    51    29    30 1   
    52    29    31 1   
    53    30    53 1   
    54    31    32 2   
    55    31    54 1   
    56    40    55 1   
    57    41    55 1   
    58    42    55 1   
@<TRIPOS>SUBSTRUCTURE
     1 W8P         1 TEMP              0 ****  ****    0 ROOT
