@<TRIPOS>MOLECULE
W8P
   55    58     1     0     0
SMALL
bcc


@<TRIPOS>ATOM
      1 C10        -10.2360    58.1790    -0.8800 ca         1 W8P       0.007000
      2 C13         -7.5320    58.5900    -0.5900 ca         1 W8P      -0.067200
      3 C15        -12.8030    57.6560    -1.1070 cg         1 W8P      -0.094000
      4 C17        -15.1270    58.3360    -1.4870 ca         1 W8P      -0.108500
      5 C20        -18.3650    56.3600    -1.5280 c3         1 W8P       0.094600
      6 C22        -18.3970    55.8700    -3.9760 cc         1 W8P      -0.251600
      7 C26        -19.5160    53.4900    -1.4720 c3         1 W8P       0.113100
      8 C28        -15.9640    55.7120    -1.1350 ca         1 W8P      -0.109000
      9 S02         -2.7530    57.3170    -1.0540 ss         1 W8P      -0.322200
     10 C03         -4.2550    58.2160    -1.5540 c3         1 W8P       0.192800
     11 C04         -5.0290    58.5470    -0.2770 c3         1 W8P       0.062300
     12 N05         -6.3000    59.1510    -0.5840 na         1 W8P       0.092900
     13 N06         -6.3610    60.3940    -1.0590 nc         1 W8P      -0.168400
     14 N07         -7.5630    60.6870    -1.3610 nd         1 W8P      -0.208400
     15 C08         -8.3500    59.6020    -1.0930 ca         1 W8P       0.007400
     16 C09         -9.7230    59.4130    -1.2450 ca         1 W8P      -0.019000
     17 C11         -9.3870    57.1610    -0.3650 ca         1 W8P      -0.071000
     18 C12         -8.0350    57.3430    -0.2080 ca         1 W8P      -0.144000
     19 C14        -11.6270    57.9080    -1.0070 ch         1 W8P      -0.107000
     20 C16        -14.1860    57.3420    -1.2120 ca         1 W8P       0.037000
     21 C18        -16.4720    58.0130    -1.5840 ca         1 W8P      -0.109000
     22 C19        -16.9040    56.7040    -1.4100 ca         1 W8P      -0.109300
     23 N21        -18.6280    55.5120    -2.6780 na         1 W8P      -0.174900
     24 C23        -18.7810    54.7980    -4.7270 cd         1 W8P       0.295200
     25 N24        -19.2330    53.7980    -3.9180 nd         1 W8P      -0.662000
     26 C25        -19.1320    54.2520    -2.6920 cc         1 W8P       0.389800
     27 O27        -18.3500    53.1600    -0.7450 oh         1 W8P      -0.599800
     28 C29        -14.6220    56.0230    -1.0370 ca         1 W8P      -0.108500
     29 N30         -5.0530    57.5020    -2.5070 n          1 W8P      -0.367300
     30 O31         -5.4760    56.2680    -2.1020 oh         1 W8P      -0.387100
     31 C32         -5.0910    57.7930    -3.8290 c          1 W8P       0.668900
     32 O33         -5.6120    57.0990    -4.6730 o          1 W8P      -0.549100
     33 H1         -14.8050    59.3590    -1.6260 ha         1 W8P       0.141500
     34 H2         -18.9620    57.2680    -1.6180 h1         1 W8P       0.064700
     35 H3         -18.7080    55.8440    -0.6330 h1         1 W8P       0.064700
     36 H4         -17.9910    56.8310    -4.2440 h4         1 W8P       0.177000
     37 H5         -20.2120    54.0790    -0.8630 h1         1 W8P       0.042700
     38 H6         -20.0580    52.6000    -1.8070 h1         1 W8P       0.042700
     39 H7         -16.2880    54.6890    -0.9930 ha         1 W8P       0.145000
     40 H8          -0.8470    56.9360    -2.3930 h1         1 W8P       0.068033
     41 H9          -2.2930    56.8950    -3.4010 h1         1 W8P       0.068033
     42 H10         -1.6160    58.4570    -2.8670 h1         1 W8P       0.068033
     43 H11         -3.9540    59.1500    -2.0340 h2         1 W8P       0.093700
     44 H12         -5.2120    57.6580     0.3250 h1         1 W8P       0.091200
     45 H13         -4.4420    59.2360     0.3280 h1         1 W8P       0.091200
     46 H14        -10.3600    60.1960    -1.6330 ha         1 W8P       0.162000
     47 H15         -9.8280    56.2150    -0.0820 ha         1 W8P       0.145000
     48 H16         -7.4170    56.5610     0.2110 ha         1 W8P       0.151000
     49 H17        -17.1910    58.7950    -1.7960 ha         1 W8P       0.145000
     50 H18        -18.7520    54.6970    -5.8010 h4         1 W8P       0.039100
     51 H19        -18.6200    52.8230     0.1160 ho         1 W8P       0.408000
     52 H20        -13.9010    55.2450    -0.8200 ha         1 W8P       0.141500
     53 H21         -6.4440    56.2860    -2.1230 ho         1 W8P       0.414000
     54 H22         -4.6240    58.7660    -4.0380 h5         1 W8P       0.026200
     55 C01         -1.8020    57.4220    -2.5850 c3         1 W8P      -0.009000
@<TRIPOS>BOND
     1     1    16 ar  
     2     1    17 ar  
     3     1    19 1   
     4     2    12 1   
     5     2    15 ar  
     6     2    18 ar  
     7     3    19 3   
     8     3    20 1   
     9     4    20 ar  
    10     4    21 ar  
    11     4    33 1   
    12     5    22 1   
    13     5    23 1   
    14     5    34 1   
    15     5    35 1   
    16     6    23 1   
    17     6    24 2   
    18     6    36 1   
    19     7    26 1   
    20     7    27 1   
    21     7    37 1   
    22     7    38 1   
    23     8    22 ar  
    24     8    28 ar  
    25     8    39 1   
    26     9    10 1   
    27     9    55 1   
    28    10    11 1   
    29    10    29 1   
    30    10    43 1   
    31    11    12 1   
    32    11    44 1   
    33    11    45 1   
    34    12    13 1   
    35    13    14 2   
    36    14    15 1   
    37    15    16 ar  
    38    16    46 1   
    39    17    18 ar  
    40    17    47 1   
    41    18    48 1   
    42    20    28 ar  
    43    21    22 ar  
    44    21    49 1   
    45    23    26 1   
    46    24    25 1   
    47    24    50 1   
    48    25    26 2   
    49    27    51 1   
    50    28    52 1   
    51    29    30 1   
    52    29    31 1   
    53    30    53 1   
    54    31    32 2   
    55    31    54 1   
    56    40    55 1   
    57    41    55 1   
    58    42    55 1   
@<TRIPOS>SUBSTRUCTURE
     1 W8P         1 TEMP              0 ****  ****    0 ROOT
