@<TRIPOS>MOLECULE
W8R
   54    56     1     0     0
SMALL
No Charge or Current Charge


@<TRIPOS>ATOM
      1 O1           0.0030     1.2200     8.7470 os         1 W8R      -0.077700
      2 N2          -0.6020     1.0370    10.0480 nc         1 W8R      -0.366300
      3 C3          -0.5360    -0.2650    10.2590 cd         1 W8R       0.279300
      4 C31         -1.0690    -0.8680    11.5260 c3         1 W8R      -0.132400
      5 C4           0.0680    -0.9520     9.1930 cd         1 W8R      -0.251000
      6 C5           0.3890    -0.0100     8.2700 cc         1 W8R       0.185300
      7 C1C          1.0540    -0.1170     6.9270 c3         1 W8R      -0.116700
      8 C2C          0.0630     0.0400     5.7530 c3         1 W8R      -0.073400
      9 C3C          0.7410    -0.0790     4.3700 c3         1 W8R      -0.075400
     10 C4C         -0.2510     0.0780     3.1960 c3         1 W8R      -0.074400
     11 C5C          0.4270    -0.0410     1.8130 c3         1 W8R      -0.073400
     12 C6C         -0.5640     0.1160     0.6390 c3         1 W8R      -0.083400
     13 C7C          0.1140    -0.0040    -0.7390 c3         1 W8R       0.166600
     14 O1B         -0.9040     0.1580    -1.7410 os         1 W8R      -0.348100
     15 C1B         -0.6220     0.1040    -3.0900 ca         1 W8R       0.171100
     16 C2B         -1.6840     0.2730    -3.9890 ca         1 W8R      -0.191000
     17 C3B         -1.4610     0.2290    -5.3760 ca         1 W8R      -0.026500
     18 C4B         -0.1620     0.0130    -5.8850 ca         1 W8R      -0.176900
     19 C5B          0.9060    -0.1570    -4.9760 ca         1 W8R      -0.026500
     20 C6B          0.6790    -0.1120    -3.5880 ca         1 W8R      -0.191000
     21 C2A          0.0760    -0.0340    -7.3620 ce         1 W8R       0.650200
     22 N3A          1.2350    -0.2400    -7.9060 n2         1 W8R      -0.651900
     23 C4A          0.9800    -0.3350    -9.3610 c5         1 W8R       0.089500
     24 CM1          2.1170     0.3430   -10.1540 c3         1 W8R      -0.082100
     25 C5A         -0.4000     0.3480    -9.5020 c5         1 W8R       0.115600
     26 O1A         -0.9950     0.1160    -8.2160 os         1 W8R      -0.456600
     27 H311        -0.9340    -1.9560    11.5320 hc         1 W8R       0.055700
     28 H312        -0.5520    -0.4600    12.4020 hc         1 W8R       0.055700
     29 H313        -2.1400    -0.6620    11.6370 hc         1 W8R       0.055700
     30 H4           0.2420    -2.0190     9.1190 ha         1 W8R       0.151000
     31 H1C1         1.5580    -1.0880     6.8480 hc         1 W8R       0.063200
     32 H1C2         1.8360     0.6480     6.8480 hc         1 W8R       0.063200
     33 H2C1        -0.4330     1.0150     5.8290 hc         1 W8R       0.051200
     34 H2C2        -0.7190    -0.7250     5.8390 hc         1 W8R       0.051200
     35 H3C1         1.2370    -1.0550     4.2940 hc         1 W8R       0.039200
     36 H3C2         1.5230     0.6850     4.2850 hc         1 W8R       0.039200
     37 H4C1        -0.7470     1.0540     3.2720 hc         1 W8R       0.042700
     38 H4C2        -1.0330    -0.6870     3.2810 hc         1 W8R       0.042700
     39 H5C1         0.9230    -1.0170     1.7380 hc         1 W8R       0.040200
     40 H5C2         1.2100     0.7240     1.7280 hc         1 W8R       0.040200
     41 H6C1        -1.0590     1.0920     0.7100 hc         1 W8R       0.056200
     42 H6C2        -1.3460    -0.6500     0.7200 hc         1 W8R       0.056200
     43 H7C1         0.5930    -0.9870    -0.8280 h1         1 W8R       0.036200
     44 H7C2         0.8820     0.7740    -0.8380 h1         1 W8R       0.036200
     45 H2B         -2.6880     0.4400    -3.6090 ha         1 W8R       0.125000
     46 H3B         -2.3040     0.3630    -6.0520 ha         1 W8R       0.132500
     47 H5B          1.9180    -0.3250    -5.3410 ha         1 W8R       0.132500
     48 H6B          1.5250    -0.2470    -2.9200 ha         1 W8R       0.125000
     49 H4A          0.9190    -1.3900    -9.6630 h1         1 W8R       0.072700
     50 HM11         3.0750    -0.1610    -9.9770 hc         1 W8R       0.042367
     51 HM12         1.9160     0.3070   -11.2320 hc         1 W8R       0.042367
     52 HM13         2.2330     1.3960    -9.8700 hc         1 W8R       0.042367
     53 H5A1        -0.3030     1.4320    -9.6560 h1         1 W8R       0.061200
     54 H5A2        -1.0220    -0.0780   -10.3010 h1         1 W8R       0.061200
@<TRIPOS>BOND
     1     1     2 1   
     2     1     6 1   
     3     2     3 2   
     4     3     4 1   
     5     3     5 1   
     6     4    27 1   
     7     4    28 1   
     8     4    29 1   
     9     5     6 2   
    10     5    30 1   
    11     6     7 1   
    12     7     8 1   
    13     7    31 1   
    14     7    32 1   
    15     8     9 1   
    16     8    33 1   
    17     8    34 1   
    18     9    10 1   
    19     9    35 1   
    20     9    36 1   
    21    10    11 1   
    22    10    37 1   
    23    10    38 1   
    24    11    12 1   
    25    11    39 1   
    26    11    40 1   
    27    12    13 1   
    28    12    41 1   
    29    12    42 1   
    30    13    14 1   
    31    13    43 1   
    32    13    44 1   
    33    14    15 1   
    34    15    16 ar  
    35    15    20 ar  
    36    16    17 ar  
    37    16    45 1   
    38    17    18 ar  
    39    17    46 1   
    40    18    19 ar  
    41    18    21 1   
    42    19    20 ar  
    43    19    47 1   
    44    20    48 1   
    45    21    22 2   
    46    21    26 1   
    47    22    23 1   
    48    23    24 1   
    49    23    25 1   
    50    23    49 1   
    51    24    50 1   
    52    24    51 1   
    53    24    52 1   
    54    25    26 1   
    55    25    53 1   
    56    25    54 1   
@<TRIPOS>SUBSTRUCTURE
     1 W8R         1 TEMP              0 ****  ****    0 ROOT
