@<TRIPOS>MOLECULE
W8R
   54    56     1     0     0
SMALL
bcc


@<TRIPOS>ATOM
      1 O1          -0.0840     1.0990     8.5280 os         1 W8R      -0.122100
      2 N2          -0.6660     0.9750     9.7590 nc         1 W8R      -0.366300
      3 C3          -0.5430    -0.2760    10.0980 cd         1 W8R       0.344600
      4 C31         -1.0710    -0.7810    11.3930 c3         1 W8R      -0.132400
      5 C4           0.1310    -1.0080     9.0850 cd         1 W8R      -0.399600
      6 C5           0.3910    -0.0860     8.1290 cc         1 W8R       0.295000
      7 C1C          1.0380    -0.1620     6.7950 c3         1 W8R      -0.116700
      8 C2C          0.0510     0.0140     5.6380 c3         1 W8R      -0.073400
      9 C3C          0.7340    -0.0990     4.2810 c3         1 W8R      -0.075400
     10 C4C         -0.2390     0.0730     3.1220 c3         1 W8R      -0.074400
     11 C5C          0.4240    -0.0440     1.7550 c3         1 W8R      -0.073400
     12 C6C         -0.5650     0.1680     0.6160 c3         1 W8R      -0.083400
     13 C7C          0.0890     0.0220    -0.7420 c3         1 W8R       0.143400
     14 O1B         -0.9050     0.2650    -1.7300 os         1 W8R      -0.324900
     15 C1B         -0.5860     0.1730    -3.0280 ca         1 W8R       0.171100
     16 C2B         -1.6170     0.4240    -3.9370 ca         1 W8R      -0.209000
     17 C3B         -1.3880     0.3440    -5.2950 ca         1 W8R      -0.044500
     18 C4B         -0.1220     0.0140    -5.7850 ca         1 W8R      -0.176900
     19 C5B          0.9020    -0.2270    -4.8730 ca         1 W8R      -0.044500
     20 C6B          0.6840    -0.1510    -3.5080 ca         1 W8R      -0.209000
     21 C2A          0.1450    -0.0890    -7.2200 ce         1 W8R       0.650200
     22 N3A          1.2660    -0.3480    -7.7500 n2         1 W8R      -0.651900
     23 C4A          1.0760    -0.3570    -9.1960 c5         1 W8R       0.089500
     24 CM1          2.0010     0.6300    -9.8890 c3         1 W8R      -0.082100
     25 C5A         -0.4210    -0.0280    -9.3770 c5         1 W8R       0.092400
     26 O1A         -0.9090     0.1020    -8.0340 os         1 W8R      -0.433400
     27 H311        -1.8270    -1.5480    11.2260 hc         1 W8R       0.055700
     28 H312        -0.2740    -1.2330    11.9820 hc         1 W8R       0.055700
     29 H313        -1.5190     0.0220    11.9760 hc         1 W8R       0.055700
     30 H4           0.3770    -2.0570     9.0780 ha         1 W8R       0.169000
     31 H1C1         1.5290    -1.1340     6.7170 hc         1 W8R       0.063200
     32 H1C2         1.8250     0.5950     6.7260 hc         1 W8R       0.063200
     33 H2C1        -0.4430     0.9870     5.7160 hc         1 W8R       0.051200
     34 H2C2        -0.7360    -0.7410     5.7180 hc         1 W8R       0.051200
     35 H3C1         1.2300    -1.0720     4.2030 hc         1 W8R       0.039200
     36 H3C2         1.5250     0.6540     4.2080 hc         1 W8R       0.039200
     37 H4C1        -0.7310     1.0480     3.2030 hc         1 W8R       0.042700
     38 H4C2        -1.0350    -0.6760     3.2020 hc         1 W8R       0.042700
     39 H5C1         0.8930    -1.0290     1.6620 hc         1 W8R       0.040200
     40 H5C2         1.2340     0.6900     1.6800 hc         1 W8R       0.040200
     41 H6C1        -1.0080     1.1650     0.6990 hc         1 W8R       0.056200
     42 H6C2        -1.3830    -0.5530     0.7010 hc         1 W8R       0.056200
     43 H7C1         0.5020    -0.9860    -0.8590 h1         1 W8R       0.036200
     44 H7C2         0.9140     0.7350    -0.8530 h1         1 W8R       0.036200
     45 H2B         -2.6020     0.6800    -3.5660 ha         1 W8R       0.143000
     46 H3B         -2.2080     0.5400    -5.9710 ha         1 W8R       0.150500
     47 H5B          1.8890    -0.4840    -5.2350 ha         1 W8R       0.150500
     48 H6B          1.5090    -0.3450    -2.8370 ha         1 W8R       0.143000
     49 H4A          1.2980    -1.3600    -9.5720 h1         1 W8R       0.072700
     50 HM11         3.0450     0.4020    -9.6740 hc         1 W8R       0.042367
     51 HM12         1.8640     0.5870   -10.9700 hc         1 W8R       0.042367
     52 HM13         1.7980     1.6520    -9.5630 hc         1 W8R       0.042367
     53 H5A1        -0.5910     0.9140    -9.9040 h1         1 W8R       0.061200
     54 H5A2        -0.9800    -0.8160    -9.8800 h1         1 W8R       0.061200
@<TRIPOS>BOND
     1     1     2 1   
     2     1     6 1   
     3     2     3 2   
     4     3     4 1   
     5     3     5 1   
     6     4    27 1   
     7     4    28 1   
     8     4    29 1   
     9     5     6 2   
    10     5    30 1   
    11     6     7 1   
    12     7     8 1   
    13     7    31 1   
    14     7    32 1   
    15     8     9 1   
    16     8    33 1   
    17     8    34 1   
    18     9    10 1   
    19     9    35 1   
    20     9    36 1   
    21    10    11 1   
    22    10    37 1   
    23    10    38 1   
    24    11    12 1   
    25    11    39 1   
    26    11    40 1   
    27    12    13 1   
    28    12    41 1   
    29    12    42 1   
    30    13    14 1   
    31    13    43 1   
    32    13    44 1   
    33    14    15 1   
    34    15    16 ar  
    35    15    20 ar  
    36    16    17 ar  
    37    16    45 1   
    38    17    18 ar  
    39    17    46 1   
    40    18    19 ar  
    41    18    21 1   
    42    19    20 ar  
    43    19    47 1   
    44    20    48 1   
    45    21    22 2   
    46    21    26 1   
    47    22    23 1   
    48    23    24 1   
    49    23    25 1   
    50    23    49 1   
    51    24    50 1   
    52    24    51 1   
    53    24    52 1   
    54    25    26 1   
    55    25    53 1   
    56    25    54 1   
@<TRIPOS>SUBSTRUCTURE
     1 W8R         1 TEMP              0 ****  ****    0 ROOT
