@<TRIPOS>MOLECULE
W8S
   58    62     1     0     0
SMALL
bcc


@<TRIPOS>ATOM
      1 C12          2.5490     9.9030    10.6440 c3         1 W8S       0.040600
      2 C01          8.5430     8.5870    13.7680 c3         1 W8S       0.125700
      3 C03          6.8160     7.7550    15.1690 ca         1 W8S       0.134100
      4 C04          5.8230     8.1330    14.2740 ca         1 W8S      -0.193000
      5 C05          4.4780     7.8810    14.5640 ca         1 W8S      -0.078500
      6 C06          4.1410     7.2490    15.7560 ca         1 W8S      -0.152000
      7 C07          5.1400     6.8740    16.6460 ca         1 W8S      -0.100000
      8 C08          6.4710     7.1210    16.3660 ca         1 W8S      -0.158000
      9 C09          3.4360     8.2870    13.6160 cc         1 W8S       0.376800
     10 C13          1.5410     8.6450    12.5590 cd         1 W8S       0.101300
     11 C15         -0.4740     9.9100    12.0700 ca         1 W8S       0.271600
     12 C16          0.0350    11.0610    12.6660 ca         1 W8S      -0.331000
     13 C17         -0.7070    12.2370    12.6340 ca         1 W8S       0.226100
     14 C19         -1.9540    12.2810    12.0200 ca         1 W8S      -0.305000
     15 C20         -2.4490    11.1260    11.4300 ca         1 W8S       0.232100
     16 C22         -1.7150     9.9420    11.4250 ca         1 W8S      -0.275600
     17 C23         -2.2590     8.7060    10.7840 c          1 W8S       0.710700
     18 C26         -1.6060     9.6810     8.5950 c5         1 W8S       0.155800
     19 C27         -1.6540     9.0390     7.2440 ca         1 W8S      -0.101800
     20 C28         -2.2640     7.7970     7.3140 ca         1 W8S      -0.101800
     21 C29         -2.6620     7.4800     8.7200 c5         1 W8S       0.155800
     22 C30         -2.4330     7.0260     6.1750 ca         1 W8S      -0.108000
     23 C31         -1.9760     7.5220     4.9600 ca         1 W8S      -0.124500
     24 C32         -1.3610     8.7690     4.8910 ca         1 W8S      -0.124500
     25 C33         -1.1950     9.5390     6.0360 ca         1 W8S      -0.108000
     26 C34          2.0500     8.0550    13.6920 cc         1 W8S      -0.307300
     27 N10          3.7360     8.9760    12.5240 nd         1 W8S      -0.518800
     28 N11          2.5910     9.1680    11.8840 na         1 W8S       0.116400
     29 N14          0.2510     8.7230    12.0610 nu         1 W8S      -0.639000
     30 N25         -2.2040     8.6580     9.4490 n          1 W8S      -0.466800
     31 O18         -0.2620    13.3700    13.2030 oh         1 W8S      -0.488100
     32 O21         -3.6500    11.0910    10.8260 oh         1 W8S      -0.484100
     33 O24         -2.6930     7.7740    11.4540 o          1 W8S      -0.614100
     34 H1           3.5240     9.8350    10.1700 h1         1 W8S       0.059700
     35 H2           1.8030     9.4650     9.9850 h1         1 W8S       0.059700
     36 H3           2.3010    10.9510    10.8100 h1         1 W8S       0.059700
     37 H4           9.6280     8.6410    13.8040 h1         1 W8S       0.040367
     38 H5           8.2500     8.0130    12.8840 h1         1 W8S       0.040367
     39 H6           8.1430     9.6000    13.6770 h1         1 W8S       0.040367
     40 H7           6.0710     8.6210    13.3420 ha         1 W8S       0.150000
     41 H8           3.1070     7.0510    16.0030 ha         1 W8S       0.133000
     42 H9           4.8740     6.3820    17.5730 ha         1 W8S       0.132000
     43 H10          7.2470     6.8290    17.0620 ha         1 W8S       0.144000
     44 H11          0.9900    11.0390    13.1790 ha         1 W8S       0.151000
     45 H12         -2.5280    13.2000    12.0130 ha         1 W8S       0.153000
     46 H13         -0.5870     9.9180     8.9110 h1         1 W8S       0.062950
     47 H14         -3.7420     7.3400     8.8290 h1         1 W8S       0.062950
     48 H15         -2.9110     6.0550     6.2250 ha         1 W8S       0.135500
     49 H16         -2.0990     6.9350     4.0590 ha         1 W8S       0.133000
     50 H17         -1.0110     9.1430     3.9380 ha         1 W8S       0.133000
     51 H18         -0.7190    10.5100     5.9810 ha         1 W8S       0.135500
     52 H19          1.4890     7.5400    14.4550 ha         1 W8S       0.171000
     53 H20         -0.2870     7.8740    12.1450 hn         1 W8S       0.464800
     54 H21          0.6010    13.2270    13.6080 ho         1 W8S       0.434000
     55 H22         -4.0540    11.9670    10.8210 ho         1 W8S       0.433000
     56 H23         -2.1810    10.6110     8.6120 h1         1 W8S       0.062950
     57 H24         -2.1790     6.5730     9.0940 h1         1 W8S       0.062950
     58 O02          8.1320     7.9600    14.9660 os         1 W8S      -0.320900
@<TRIPOS>BOND
     1     1    28 1   
     2     1    34 1   
     3     1    35 1   
     4     1    36 1   
     5     2    37 1   
     6     2    38 1   
     7     2    39 1   
     8     2    58 1   
     9     3     4 ar  
    10     3     8 ar  
    11     3    58 1   
    12     4     5 ar  
    13     4    40 1   
    14     5     6 ar  
    15     5     9 1   
    16     6     7 ar  
    17     6    41 1   
    18     7     8 ar  
    19     7    42 1   
    20     8    43 1   
    21     9    26 1   
    22     9    27 2   
    23    10    26 2   
    24    10    28 1   
    25    10    29 1   
    26    11    12 ar  
    27    11    16 ar  
    28    11    29 1   
    29    12    13 ar  
    30    12    44 1   
    31    13    14 ar  
    32    13    31 1   
    33    14    15 ar  
    34    14    45 1   
    35    15    16 ar  
    36    15    32 1   
    37    16    17 1   
    38    17    30 1   
    39    17    33 2   
    40    18    19 1   
    41    18    30 1   
    42    18    46 1   
    43    18    56 1   
    44    19    20 ar  
    45    19    25 ar  
    46    20    21 1   
    47    20    22 ar  
    48    21    30 1   
    49    21    47 1   
    50    21    57 1   
    51    22    23 ar  
    52    22    48 1   
    53    23    24 ar  
    54    23    49 1   
    55    24    25 ar  
    56    24    50 1   
    57    25    51 1   
    58    26    52 1   
    59    27    28 1   
    60    29    53 1   
    61    31    54 1   
    62    32    55 1   
@<TRIPOS>SUBSTRUCTURE
     1 W8S         1 TEMP              0 ****  ****    0 ROOT
