@<TRIPOS>MOLECULE
W8S
   58    62     1     0     0
SMALL
No Charge or Current Charge


@<TRIPOS>ATOM
      1 C12          2.6060    11.0570    11.3320 c3         1 W8S       0.069900
      2 C01          8.7460     8.5720    14.0910 c3         1 W8S       0.148900
      3 C03          6.8580     7.2010    14.9040 ca         1 W8S       0.134100
      4 C04          5.8980     7.9710    14.2110 ca         1 W8S      -0.175000
      5 C05          4.5180     7.6570    14.2870 ca         1 W8S      -0.078500
      6 C06          4.1280     6.5490    15.0760 ca         1 W8S      -0.134000
      7 C07          5.0820     5.7830    15.7650 ca         1 W8S      -0.082000
      8 C08          6.4430     6.1090    15.6780 ca         1 W8S      -0.140000
      9 C09          3.5200     8.4700    13.5580 cc         1 W8S       0.311500
     10 C13          1.5650     9.2020    12.7990 cd         1 W8S       0.189000
     11 C15         -0.5830    10.4160    12.1800 ca         1 W8S       0.410000
     12 C16         -0.2530    11.6900    12.6560 ca         1 W8S      -0.313000
     13 C17         -1.0650    12.7810    12.3490 ca         1 W8S       0.226100
     14 C19         -2.2170    12.6040    11.5830 ca         1 W8S      -0.287000
     15 C20         -2.5580    11.3290    11.1180 ca         1 W8S       0.232100
     16 C22         -1.7330    10.2270    11.4020 ca         1 W8S      -0.275600
     17 C23         -2.0670     8.8550    10.9110 c          1 W8S       0.643700
     18 C26         -1.6530     9.5860     8.5220 c5         1 W8S       0.155800
     19 C27         -1.6560     8.7110     7.2970 ca         1 W8S      -0.101800
     20 C28         -2.2080     7.4720     7.5470 ca         1 W8S      -0.101800
     21 C29         -2.6500     7.3310     8.9790 c5         1 W8S       0.155800
     22 C30         -2.3070     6.5060     6.5330 ca         1 W8S      -0.090000
     23 C31         -1.8310     6.8220     5.2450 ca         1 W8S      -0.106500
     24 C32         -1.2670     8.0890     4.9880 ca         1 W8S      -0.106500
     25 C33         -1.1760     9.0450     6.0200 ca         1 W8S      -0.090000
     26 C34          2.1280     8.2420    13.5630 cc         1 W8S      -0.224000
     27 N10          3.8630     9.5050    12.8040 nd         1 W8S      -0.518800
     28 N11          2.6450     9.9620    12.3130 na         1 W8S       0.137800
     29 N14          0.2260     9.3350    12.5040 nu         1 W8S      -0.971000
     30 N25         -2.2770     8.6720     9.5340 n          1 W8S      -0.399800
     31 O18         -0.7520    14.0180    12.8120 oh         1 W8S      -0.527100
     32 O21         -3.7240    11.1740    10.4350 oh         1 W8S      -0.523100
     33 O24         -2.1950     7.9240    11.6990 o          1 W8S      -0.614100
     34 H1           3.5180    11.0390    10.7230 h1         1 W8S       0.059700
     35 H2           1.7380    10.9370    10.6740 h1         1 W8S       0.059700
     36 H3           2.5410    12.0170    11.8550 h1         1 W8S       0.059700
     37 H4           9.8380     8.6070    14.1920 h1         1 W8S       0.040367
     38 H5           8.5070     8.4590    13.0260 h1         1 W8S       0.040367
     39 H6           8.3420     9.5290    14.4450 h1         1 W8S       0.040367
     40 H7           6.2140     8.8180    13.6100 ha         1 W8S       0.132000
     41 H8           3.0830     6.2670    15.1670 ha         1 W8S       0.115000
     42 H9           4.7650     4.9340    16.3680 ha         1 W8S       0.114000
     43 H10          7.1790     5.5140    16.2120 ha         1 W8S       0.126000
     44 H11          0.6210    11.8200    13.2850 ha         1 W8S       0.133000
     45 H12         -2.8510    13.4600    11.3690 ha         1 W8S       0.135000
     46 H13         -0.6310     9.8740     8.8050 h1         1 W8S       0.062950
     47 H14         -3.7300     7.1500     9.0530 h1         1 W8S       0.062950
     48 H15         -2.7420     5.5300     6.7370 ha         1 W8S       0.117500
     49 H16         -1.9000     6.0860     4.4460 ha         1 W8S       0.115000
     50 H17         -0.9010     8.3300     3.9920 ha         1 W8S       0.115000
     51 H18         -0.7430    10.0240     5.8280 ha         1 W8S       0.117500
     52 H19          1.6070     7.4550    14.0910 ha         1 W8S       0.153000
     53 H20         -0.3020     8.4580    12.5560 hn         1 W8S       0.520000
     54 H21          0.0620    13.9430    13.3510 ho         1 W8S       0.473000
     55 H22         -4.1690    12.0460    10.3900 ho         1 W8S       0.472000
     56 H23         -2.2500    10.4920     8.3600 h1         1 W8S       0.062950
     57 H24         -2.1150     6.5120     9.4800 h1         1 W8S       0.062950
     58 O02          8.2100     7.4760    14.8540 os         1 W8S      -0.344100
@<TRIPOS>BOND
     1     1    28 1   
     2     1    34 1   
     3     1    35 1   
     4     1    36 1   
     5     2    37 1   
     6     2    38 1   
     7     2    39 1   
     8     2    58 1   
     9     3     4 ar  
    10     3     8 ar  
    11     3    58 1   
    12     4     5 ar  
    13     4    40 1   
    14     5     6 ar  
    15     5     9 1   
    16     6     7 ar  
    17     6    41 1   
    18     7     8 ar  
    19     7    42 1   
    20     8    43 1   
    21     9    26 1   
    22     9    27 2   
    23    10    26 2   
    24    10    28 1   
    25    10    29 1   
    26    11    12 ar  
    27    11    16 ar  
    28    11    29 1   
    29    12    13 ar  
    30    12    44 1   
    31    13    14 ar  
    32    13    31 1   
    33    14    15 ar  
    34    14    45 1   
    35    15    16 ar  
    36    15    32 1   
    37    16    17 1   
    38    17    30 1   
    39    17    33 2   
    40    18    19 1   
    41    18    30 1   
    42    18    46 1   
    43    18    56 1   
    44    19    20 ar  
    45    19    25 ar  
    46    20    21 1   
    47    20    22 ar  
    48    21    30 1   
    49    21    47 1   
    50    21    57 1   
    51    22    23 ar  
    52    22    48 1   
    53    23    24 ar  
    54    23    49 1   
    55    24    25 ar  
    56    24    50 1   
    57    25    51 1   
    58    26    52 1   
    59    27    28 1   
    60    29    53 1   
    61    31    54 1   
    62    32    55 1   
@<TRIPOS>SUBSTRUCTURE
     1 W8S         1 TEMP              0 ****  ****    0 ROOT
