@<TRIPOS>MOLECULE
W8T
   40    42     1     0     0
SMALL
No Charge or Current Charge


@<TRIPOS>ATOM
      1 C01          7.5720     7.7870    18.4260 c5         1 W8T       0.217800
      2 C02          7.1870     7.4620    16.9630 c5         1 W8T      -0.078400
      3 C04          5.6320     6.2360    18.3560 c5         1 W8T       0.246500
      4 C06          6.3640     7.2380    20.6220 ca         1 W8T       0.361000
      5 C07          5.3690     6.5270    21.3300 ca         1 W8T      -0.204500
      6 C10          7.1130     8.1990    22.7520 ca         1 W8T      -0.068500
      7 C11          7.2340     8.0740    21.3570 ca         1 W8T      -0.204500
      8 C15          5.8370     5.5440    15.8660 c          1 W8T       0.722000
      9 C18          1.4100     7.3320    17.5270 ca         1 W8T      -0.167000
     10 C19          0.0450     7.5130    17.2380 ca         1 W8T      -0.083000
     11 C20         -0.7420     6.4180    16.8450 ca         1 W8T      -0.172000
     12 C21         -0.1690     5.1400    16.7400 ca         1 W8T      -0.083000
     13 C22          1.1940     4.9580    17.0290 ca         1 W8T      -0.167000
     14 C03          6.5800     6.0410    17.1330 c5         1 W8T      -0.193700
     15 N05          6.4940     7.1190    19.2100 nh         1 W8T      -0.832400
     16 C08          5.2450     6.6500    22.7250 ca         1 W8T      -0.068500
     17 C09          6.1170     7.4870    23.4350 ca         1 W8T      -0.197000
     18 C12          4.2200     6.8560    18.1070 c3         1 W8T       0.155600
     19 O13          3.3210     5.8070    17.6950 os         1 W8T      -0.324100
     20 C14          1.9900     6.0470    17.4220 ca         1 W8T       0.180100
     21 O16          6.0920     4.4210    15.4590 o          1 W8T      -0.723500
     22 O17          5.1190     6.3040    15.2320 o          1 W8T      -0.723500
     23 H24          8.5540     7.3640    18.6780 h1         1 W8T       0.024700
     24 H23          7.6030     8.8730    18.5930 h1         1 W8T       0.024700
     25 H25          6.4580     8.1860    16.5810 hc         1 W8T       0.056200
     26 H26          8.0510     7.4810    16.2900 hc         1 W8T       0.056200
     27 H28          5.4790     5.2590    18.8370 h1         1 W8T       0.064700
     28 H29          4.6790     5.8710    20.8130 ha         1 W8T       0.114000
     29 H32          7.7910     8.8490    23.3010 ha         1 W8T       0.093500
     30 H33          8.0140     8.6370    20.8570 ha         1 W8T       0.114000
     31 H39         -1.7970     6.5600    16.6230 ha         1 W8T       0.096000
     32 H40         -0.7800     4.2920    16.4360 ha         1 W8T       0.096500
     33 H41          1.6380     3.9700    16.9480 ha         1 W8T       0.124500
     34 H27          7.3370     5.2960    17.4060 hc         1 W8T       0.045700
     35 H30          4.4720     6.0960    23.2530 ha         1 W8T       0.093500
     36 H31          6.0220     7.5830    24.5140 ha         1 W8T       0.097000
     37 H34          3.8600     7.3020    19.0430 h1         1 W8T       0.043700
     38 H35          4.2820     7.6530    17.3560 h1         1 W8T       0.043700
     39 H37          1.9970     8.1940    17.8290 ha         1 W8T       0.124500
     40 H38         -0.4010     8.5020    17.3190 ha         1 W8T       0.096500
@<TRIPOS>BOND
     1     1     2 1   
     2     1    15 1   
     3     1    23 1   
     4     1    24 1   
     5     2    14 1   
     6     2    25 1   
     7     2    26 1   
     8     3    14 1   
     9     3    15 1   
    10     3    18 1   
    11     3    27 1   
    12     4     5 ar  
    13     4     7 ar  
    14     4    15 1   
    15     5    16 ar  
    16     5    28 1   
    17     6     7 ar  
    18     6    17 ar  
    19     6    29 1   
    20     7    30 1   
    21     8    14 1   
    22     8    21 1   
    23     8    22 1   
    24     9    10 ar  
    25     9    20 ar  
    26     9    39 1   
    27    10    11 ar  
    28    10    40 1   
    29    11    12 ar  
    30    11    31 1   
    31    12    13 ar  
    32    12    32 1   
    33    13    20 ar  
    34    13    33 1   
    35    14    34 1   
    36    16    17 ar  
    37    16    35 1   
    38    17    36 1   
    39    18    19 1   
    40    18    37 1   
    41    18    38 1   
    42    19    20 1   
@<TRIPOS>SUBSTRUCTURE
     1 W8T         1 TEMP              0 ****  ****    0 ROOT
