@<TRIPOS>MOLECULE
W8T
   40    42     1     0     0
SMALL
abcg2


@<TRIPOS>ATOM
      1 C01          7.4360     7.8510    18.4480 c5         1 W8T       0.217800
      2 C02          7.1060     7.4560    17.0130 c5         1 W8T      -0.078400
      3 C04          5.5620     6.3030    18.4430 c5         1 W8T       0.246500
      4 C06          6.3360     7.2820    20.6010 ca         1 W8T       0.361000
      5 C07          5.3910     6.5480    21.3490 ca         1 W8T      -0.204500
      6 C10          7.2390     8.1150    22.7030 ca         1 W8T      -0.068500
      7 C11          7.2630     8.0700    21.3160 ca         1 W8T      -0.204500
      8 C15          5.6200     5.5950    15.9430 c          1 W8T       0.722000
      9 C18          1.4650     7.3250    17.4610 ca         1 W8T      -0.167000
     10 C19          0.1410     7.4800    17.0540 ca         1 W8T      -0.083000
     11 C20         -0.6170     6.3880    16.6500 ca         1 W8T      -0.172000
     12 C21         -0.0360     5.1190    16.6530 ca         1 W8T      -0.083000
     13 C22          1.2800     4.9490    17.0540 ca         1 W8T      -0.167000
     14 C03          6.4110     6.1040    17.1670 c5         1 W8T      -0.193700
     15 N05          6.3600     7.2430    19.2300 nh         1 W8T      -0.832400
     16 C08          5.3840     6.6050    22.7360 ca         1 W8T      -0.068500
     17 C09          6.3030     7.3860    23.4320 ca         1 W8T      -0.197000
     18 C12          4.1660     6.8760    18.2030 c3         1 W8T       0.155600
     19 O13          3.3120     5.7880    17.8490 os         1 W8T      -0.324100
     20 C14          2.0370     6.0520    17.4630 ca         1 W8T       0.180100
     21 O16          5.5450     4.3450    15.8120 o          1 W8T      -0.723500
     22 O17          5.1110     6.4500    15.1760 o          1 W8T      -0.723500
     23 H24          8.4100     7.4530    18.7590 h1         1 W8T       0.024700
     24 H23          7.4620     8.9340    18.5900 h1         1 W8T       0.024700
     25 H25          6.4220     8.1740    16.5600 hc         1 W8T       0.056200
     26 H26          7.9970     7.4000    16.3870 hc         1 W8T       0.056200
     27 H28          5.4510     5.3550    18.9740 h1         1 W8T       0.064700
     28 H29          4.6560     5.9340    20.8490 ha         1 W8T       0.114000
     29 H32          7.9670     8.7300    23.2190 ha         1 W8T       0.093500
     30 H33          8.0040     8.6480    20.7820 ha         1 W8T       0.114000
     31 H39         -1.6440     6.5190    16.3360 ha         1 W8T       0.096000
     32 H40         -0.6120     4.2570    16.3380 ha         1 W8T       0.096500
     33 H41          1.7420     3.9700    17.0580 ha         1 W8T       0.124500
     34 H27          7.1590     5.3450    17.4070 hc         1 W8T       0.045700
     35 H30          4.6440     6.0280    23.2780 ha         1 W8T       0.093500
     36 H31          6.2890     7.4260    24.5130 ha         1 W8T       0.097000
     37 H34          3.7950     7.3560    19.1120 h1         1 W8T       0.043700
     38 H35          4.1880     7.6120    17.3970 h1         1 W8T       0.043700
     39 H37          2.0330     8.1880    17.7750 ha         1 W8T       0.124500
     40 H38         -0.2960     8.4710    17.0560 ha         1 W8T       0.096500
@<TRIPOS>BOND
     1     1     2 1   
     2     1    15 1   
     3     1    23 1   
     4     1    24 1   
     5     2    14 1   
     6     2    25 1   
     7     2    26 1   
     8     3    14 1   
     9     3    15 1   
    10     3    18 1   
    11     3    27 1   
    12     4     5 ar  
    13     4     7 ar  
    14     4    15 1   
    15     5    16 ar  
    16     5    28 1   
    17     6     7 ar  
    18     6    17 ar  
    19     6    29 1   
    20     7    30 1   
    21     8    14 1   
    22     8    21 1   
    23     8    22 1   
    24     9    10 ar  
    25     9    20 ar  
    26     9    39 1   
    27    10    11 ar  
    28    10    40 1   
    29    11    12 ar  
    30    11    31 1   
    31    12    13 ar  
    32    12    32 1   
    33    13    20 ar  
    34    13    33 1   
    35    14    34 1   
    36    16    17 ar  
    37    16    35 1   
    38    17    36 1   
    39    18    19 1   
    40    18    37 1   
    41    18    38 1   
    42    19    20 1   
@<TRIPOS>SUBSTRUCTURE
     1 W8T         1 TEMP              0 ****  ****    0 ROOT
