@<TRIPOS>MOLECULE
W8U
   50    54     1     0     0
SMALL
abcg2


@<TRIPOS>ATOM
      1 C18          9.3120    17.5680    13.4950 cc         1 W8U      -0.114000
      2 C14         10.0430    19.6750    12.6320 cd         1 W8U      -0.132500
      3 C13         14.4630    23.5210    10.1040 c6         1 W8U      -0.132400
      4 C12         15.8140    23.2890    10.7660 c6         1 W8U       0.157100
      5 C16         11.3570    18.5300    14.3140 cc         1 W8U      -0.108000
      6 C15         11.1860    19.5840    13.4910 cd         1 W8U      -0.108000
      7 N3          11.0170    21.5240    11.4920 nb         1 W8U      -0.260000
      8 C10         14.9080    23.3600    12.9210 c6         1 W8U       0.157100
      9 C8          13.3500    22.9920    11.0020 c6         1 W8U       0.247500
     10 C5           8.6790    21.2430    11.2160 ca         1 W8U      -0.274000
     11 C6           8.7040    22.3660    10.4040 ca         1 W8U       0.155900
     12 N1           9.8010    23.0450    10.1300 nb         1 W8U      -0.241000
     13 C4           9.9030    20.8500    11.7460 ca         1 W8U       0.219500
     14 C19          9.1190    18.6720    12.6370 cc         1 W8U      -0.046000
     15 C20         10.3150    16.3570    14.9920 cc         1 W8U       0.316800
     16 C2          10.9310    22.5890    10.6930 ca         1 W8U       0.391900
     17 C23         11.2820    15.8710    16.0140 c3         1 W8U      -0.017400
     18 C24         11.5190    14.3940    15.9030 ca         1 W8U      -0.114300
     19 C25         12.1470    13.8160    14.8010 ca         1 W8U       0.460000
     20 C27         12.0170    11.7150    15.6270 ca         1 W8U       0.356900
     21 C28         11.3840    12.1570    16.7740 ca         1 W8U      -0.162000
     22 C29         11.1350    13.5150    16.9050 ca         1 W8U      -0.051000
     23 C9          13.4980    23.5960    12.3980 c6         1 W8U      -0.132400
     24 N17         10.4180    17.5320    14.3120 na         1 W8U       0.027200
     25 N21          9.2260    15.7440    14.6090 nd         1 W8U      -0.347700
     26 N22          8.5950    16.4810    13.6810 nd         1 W8U      -0.084000
     27 N26         12.3930    12.5400    14.6530 nb         1 W8U      -0.658000
     28 N7          12.0610    23.2600    10.4050 nu         1 W8U      -0.918100
     29 O11         15.8870    23.8750    12.0460 os         1 W8U      -0.447000
     30 CL1         12.6600    14.8480    13.4970 cl         1 W8U      -0.175000
     31 H131        14.3190    24.5920     9.9250 hc         1 W8U       0.058200
     32 H132        14.4440    23.0200     9.1340 hc         1 W8U       0.058200
     33 H121        16.6130    23.7280    10.1660 h1         1 W8U       0.047200
     34 H122        16.0050    22.2070    10.8280 h1         1 W8U       0.047200
     35 H161        12.1940    18.4260    14.9870 h4         1 W8U       0.148000
     36 H151        11.9240    20.3720    13.4880 ha         1 W8U       0.151000
     37 H101        15.0500    23.8530    13.8840 h1         1 W8U       0.047200
     38 H102        15.0640    22.2820    13.0780 h1         1 W8U       0.047200
     39 H81         13.4610    21.9070    11.0830 h1         1 W8U       0.076700
     40 H51          7.7510    20.7360    11.4310 ha         1 W8U       0.139000
     41 H61          7.7850    22.7350     9.9600 h4         1 W8U       0.024100
     42 H191         8.2490    18.6700    11.9960 ha         1 W8U       0.150000
     43 H231        12.2300    16.4060    15.9210 hc         1 W8U       0.067200
     44 H232        10.9030    16.1010    17.0120 hc         1 W8U       0.067200
     45 H271        12.2350    10.6650    15.4780 h4         1 W8U       0.028100
     46 H281        11.0950    11.4570    17.5460 ha         1 W8U       0.131000
     47 H291        10.6430    13.8990    17.7900 ha         1 W8U       0.124000
     48 H91         13.2910    24.6700    12.3530 hc         1 W8U       0.058200
     49 H92         12.7770    23.1520    13.0880 hc         1 W8U       0.058200
     50 H71         11.9470    24.1150     9.8830 hn         1 W8U       0.505000
@<TRIPOS>BOND
     1     1    14 1   
     2     1    24 1   
     3     1    26 2   
     4     2     6 1   
     5     2    13 1   
     6     2    14 2   
     7     3     4 1   
     8     3     9 1   
     9     3    31 1   
    10     3    32 1   
    11     4    29 1   
    12     4    33 1   
    13     4    34 1   
    14     5     6 2   
    15     5    24 1   
    16     5    35 1   
    17     6    36 1   
    18     7    13 ar  
    19     7    16 ar  
    20     8    23 1   
    21     8    29 1   
    22     8    37 1   
    23     8    38 1   
    24     9    23 1   
    25     9    28 1   
    26     9    39 1   
    27    10    11 ar  
    28    10    13 ar  
    29    10    40 1   
    30    11    12 ar  
    31    11    41 1   
    32    12    16 ar  
    33    14    42 1   
    34    15    17 1   
    35    15    24 1   
    36    15    25 2   
    37    16    28 1   
    38    17    18 1   
    39    17    43 1   
    40    17    44 1   
    41    18    19 ar  
    42    18    22 ar  
    43    19    27 ar  
    44    19    30 1   
    45    20    21 ar  
    46    20    27 ar  
    47    20    45 1   
    48    21    22 ar  
    49    21    46 1   
    50    22    47 1   
    51    23    48 1   
    52    23    49 1   
    53    25    26 1   
    54    28    50 1   
@<TRIPOS>SUBSTRUCTURE
     1 W8U         1 TEMP              0 ****  ****    0 ROOT
