@<TRIPOS>MOLECULE
W8U
   50    54     1     0     0
SMALL
No Charge or Current Charge


@<TRIPOS>ATOM
      1 C18          9.1520    17.7560    13.9540 cc         1 W8U      -0.114000
      2 C14         10.0590    19.6080    12.6810 cd         1 W8U      -0.132500
      3 C13         14.5400    23.6460    10.0560 c6         1 W8U      -0.132400
      4 C12         15.9040    23.5990    10.7810 c6         1 W8U       0.157100
      5 C16         11.5070    18.2570    14.2580 cc         1 W8U      -0.108000
      6 C15         11.3270    19.2900    13.3360 cd         1 W8U      -0.108000
      7 N3          11.0710    21.4300    11.4430 nb         1 W8U      -0.260000
      8 C10         14.8490    23.6310    12.9610 c6         1 W8U       0.157100
      9 C8          13.4450    23.0110    10.9420 c6         1 W8U       0.247500
     10 C5           8.7400    21.0810    11.0610 ca         1 W8U      -0.274000
     11 C6           8.7590    22.1600    10.1620 ca         1 W8U       0.155900
     12 N1           9.8860    22.8490     9.9110 nb         1 W8U      -0.241000
     13 C4           9.9470    20.7290    11.7060 ca         1 W8U       0.219500
     14 C19          8.9780    18.8100    13.0190 cc         1 W8U      -0.046000
     15 C20         10.2580    16.4500    15.3790 cc         1 W8U       0.316800
     16 C2          10.9840    22.4480    10.5680 ca         1 W8U       0.391900
     17 C23         11.3390    15.8150    16.2240 c3         1 W8U      -0.017400
     18 C24         11.5210    14.3240    15.9340 ca         1 W8U      -0.114300
     19 C25         12.1470    13.8620    14.7510 ca         1 W8U       0.460000
     20 C27         11.8650    11.6450    15.3480 ca         1 W8U       0.356900
     21 C28         11.2290    12.0040    16.5470 ca         1 W8U      -0.162000
     22 C29         11.0510    13.3640    16.8500 ca         1 W8U      -0.051000
     23 C9          13.4340    23.6760    12.3400 c6         1 W8U      -0.132400
     24 N17         10.3530    17.5160    14.5220 na         1 W8U       0.027200
     25 N21          8.9890    16.0540    15.3260 nd         1 W8U      -0.347700
     26 N22          8.2980    16.8710    14.4340 nd         1 W8U      -0.084000
     27 N26         12.3200    12.5540    14.4580 nb         1 W8U      -0.658000
     28 N7          12.1360    23.1730    10.2900 nu         1 W8U      -0.918100
     29 O11         15.7960    24.2510    12.0650 os         1 W8U      -0.447000
     30 Cl1         12.7650    14.9820    13.5390 cl         1 W8U      -0.175000
     31 H131        14.2900    24.6910     9.8240 hc         1 W8U       0.058200
     32 H132        14.6100    23.1130     9.0980 hc         1 W8U       0.058200
     33 H121        16.6680    24.1140    10.1810 h1         1 W8U       0.047200
     34 H122        16.2270    22.5570    10.9260 h1         1 W8U       0.047200
     35 H161        12.4370    18.0090    14.7510 h4         1 W8U       0.148000
     36 H151        12.2040    19.8850    13.1060 ha         1 W8U       0.151000
     37 H101        14.8570    24.1690    13.9190 h1         1 W8U       0.047200
     38 H102        15.1520    22.5900    13.1500 h1         1 W8U       0.047200
     39 H81         13.6870    21.9410    11.0570 h1         1 W8U       0.076700
     40 H51          7.8080    20.5560    11.2330 ha         1 W8U       0.139000
     41 H61          7.8600    22.4760     9.6350 h4         1 W8U       0.024100
     42 H191         7.9890    18.9490    12.5990 ha         1 W8U       0.150000
     43 H231        12.2960    16.3300    16.1010 hc         1 W8U       0.067200
     44 H232        11.0770    15.9610    17.2780 hc         1 W8U       0.067200
     45 H271        12.0140    10.5960    15.0920 h4         1 W8U       0.028100
     46 H281        10.8800    11.2330    17.2280 ha         1 W8U       0.131000
     47 H291        10.5560    13.6610    17.7730 ha         1 W8U       0.124000
     48 H91         13.1040    24.7210    12.2620 hc         1 W8U       0.058200
     49 H92         12.7240    23.1660    13.0040 hc         1 W8U       0.058200
     50 H71         12.0160    23.9370     9.6240 hn         1 W8U       0.505000
@<TRIPOS>BOND
     1     1    14 1   
     2     1    24 1   
     3     1    26 2   
     4     2     6 1   
     5     2    13 1   
     6     2    14 2   
     7     3     4 1   
     8     3     9 1   
     9     3    31 1   
    10     3    32 1   
    11     4    29 1   
    12     4    33 1   
    13     4    34 1   
    14     5     6 2   
    15     5    24 1   
    16     5    35 1   
    17     6    36 1   
    18     7    13 ar  
    19     7    16 ar  
    20     8    23 1   
    21     8    29 1   
    22     8    37 1   
    23     8    38 1   
    24     9    23 1   
    25     9    28 1   
    26     9    39 1   
    27    10    11 ar  
    28    10    13 ar  
    29    10    40 1   
    30    11    12 ar  
    31    11    41 1   
    32    12    16 ar  
    33    14    42 1   
    34    15    17 1   
    35    15    24 1   
    36    15    25 2   
    37    16    28 1   
    38    17    18 1   
    39    17    43 1   
    40    17    44 1   
    41    18    19 ar  
    42    18    22 ar  
    43    19    27 ar  
    44    19    30 1   
    45    20    21 ar  
    46    20    27 ar  
    47    20    45 1   
    48    21    22 ar  
    49    21    46 1   
    50    22    47 1   
    51    23    48 1   
    52    23    49 1   
    53    25    26 1   
    54    28    50 1   
@<TRIPOS>SUBSTRUCTURE
     1 W8U         1 TEMP              0 ****  ****    0 ROOT
