@<TRIPOS>MOLECULE
W8V
   57    61     1     0     0
SMALL
No Charge or Current Charge


@<TRIPOS>ATOM
      1 C10         -1.2890    12.9690    12.2910 ca         1 W8V       0.226100
      2 C12         -2.4270    12.7490    11.5160 ca         1 W8V      -0.288000
      3 C20         -1.6570     8.9770     7.1560 ca         1 W8V      -0.102300
      4 C13         -2.7020    11.4690    11.0250 ca         1 W8V       0.233100
      5 C01          2.4700    11.4490    11.2570 c3         1 W8V       0.069900
      6 C04          3.5110     8.8490    13.4240 cc         1 W8V       0.313500
      7 C05          2.1240     8.5700    13.4260 cc         1 W8V      -0.225000
      8 C06          1.5160     9.5200    12.6850 cd         1 W8V       0.188000
      9 C08         -0.6870    10.6360    12.0760 ca         1 W8V       0.413000
     10 C09         -0.4240    11.9140    12.5800 ca         1 W8V      -0.314000
     11 C15         -1.8230    10.4040    11.2900 ca         1 W8V      -0.277600
     12 C19         -1.7030     9.8260     8.3980 c5         1 W8V       0.155800
     13 C21         -2.1460     7.7070     7.3800 ca         1 W8V      -0.102300
     14 C22         -2.5850     7.5140     8.8070 c5         1 W8V       0.155800
     15 C23         -2.1920     6.7570     6.3460 ca         1 W8V      -0.090000
     16 C24         -1.7290     7.1220     5.0660 ca         1 W8V      -0.107000
     17 C25         -1.2300     8.4220     4.8370 ca         1 W8V      -0.107000
     18 C26         -1.1920     9.3600     5.8870 ca         1 W8V      -0.090000
     19 C27          4.5860     8.1140    14.1470 ca         1 W8V      -0.116500
     20 C28          5.9270     8.3420    13.7330 ca         1 W8V      -0.082000
     21 C29          7.0100     7.6910    14.3410 ca         1 W8V      -0.120000
     22 C30          6.7890     6.8030    15.3960 ca         1 W8V      -0.102000
     23 C31          5.4840     6.5860    15.8530 ca         1 W8V      -0.118000
     24 C32          4.3800     7.2360    15.2590 ca         1 W8V      -0.055300
     25 C33          3.0240     6.9910    15.9170 c3         1 W8V      -0.047800
     26 N02          2.5580    10.3350    12.2140 na         1 W8V       0.135800
     27 N03          3.7940     9.9180    12.6910 nd         1 W8V      -0.517800
     28 N07          0.1750     9.5910    12.3820 nu         1 W8V      -0.973000
     29 N18         -2.2820     8.8620     9.3890 n          1 W8V      -0.399800
     30 O11         -1.0400    14.2110    12.7800 oh         1 W8V      -0.528100
     31 O14         -3.8560    11.2690    10.3340 oh         1 W8V      -0.524100
     32 O17         -2.1650     8.0750    11.5390 o          1 W8V      -0.616100
     33 H1          -3.1030    13.5770    11.3170 ha         1 W8V       0.135000
     34 H2           3.3830    11.4890    10.6530 h1         1 W8V       0.059367
     35 H3           1.6110    11.3010    10.5920 h1         1 W8V       0.059367
     36 H4           2.3560    12.3930    11.8010 h1         1 W8V       0.059367
     37 H5           1.6270     7.7380    13.8980 ha         1 W8V       0.153000
     38 H6           0.4410    12.0760    13.2140 ha         1 W8V       0.133000
     39 H7          -0.6990    10.1610     8.6900 h1         1 W8V       0.062700
     40 H8          -3.6550     7.2770     8.8720 h1         1 W8V       0.062700
     41 H9          -2.5770     5.7560     6.5300 ha         1 W8V       0.117500
     42 H10         -1.7570     6.4000     4.2530 ha         1 W8V       0.115000
     43 H11         -0.8730     8.7000     3.8480 ha         1 W8V       0.115000
     44 H12         -0.8080    10.3640     5.7170 ha         1 W8V       0.117500
     45 H13          6.1440     9.0140    12.9060 ha         1 W8V       0.123000
     46 H14          8.0230     7.8750    13.9880 ha         1 W8V       0.113000
     47 H15          7.6270     6.2960    15.8700 ha         1 W8V       0.112000
     48 H16          5.3320     5.9120    16.6940 ha         1 W8V       0.109000
     49 H17          2.4320     6.2650    15.3480 hc         1 W8V       0.042700
     50 H18          3.1360     6.5820    16.9280 hc         1 W8V       0.042700
     51 H19          2.4540     7.9200    16.0280 hc         1 W8V       0.042700
     52 H20         -0.3090     8.6880    12.4120 hn         1 W8V       0.522000
     53 H21         -0.2240    14.1660    13.3210 ho         1 W8V       0.473000
     54 H22         -4.3440    12.1180    10.3050 ho         1 W8V       0.473000
     55 H23         -2.3460    10.7040     8.2510 h1         1 W8V       0.062700
     56 H24         -2.0100     6.7150     9.2930 h1         1 W8V       0.062700
     57 C16         -2.0840     9.0270    10.7710 c          1 W8V       0.644700
@<TRIPOS>BOND
     1     1     2 ar  
     2     1    10 ar  
     3     1    30 1   
     4     2     4 ar  
     5     2    33 1   
     6     3    12 1   
     7     3    13 ar  
     8     3    18 ar  
     9     4    11 ar  
    10     4    31 1   
    11     5    26 1   
    12     5    34 1   
    13     5    35 1   
    14     5    36 1   
    15     6     7 1   
    16     6    19 1   
    17     6    27 2   
    18     7     8 2   
    19     7    37 1   
    20     8    26 1   
    21     8    28 1   
    22     9    10 ar  
    23     9    11 ar  
    24     9    28 1   
    25    10    38 1   
    26    11    57 1   
    27    12    29 1   
    28    12    39 1   
    29    12    55 1   
    30    13    14 1   
    31    13    15 ar  
    32    14    29 1   
    33    14    40 1   
    34    14    56 1   
    35    15    16 ar  
    36    15    41 1   
    37    16    17 ar  
    38    16    42 1   
    39    17    18 ar  
    40    17    43 1   
    41    18    44 1   
    42    19    20 ar  
    43    19    24 ar  
    44    20    21 ar  
    45    20    45 1   
    46    21    22 ar  
    47    21    46 1   
    48    22    23 ar  
    49    22    47 1   
    50    23    24 ar  
    51    23    48 1   
    52    24    25 1   
    53    25    49 1   
    54    25    50 1   
    55    25    51 1   
    56    26    27 1   
    57    28    52 1   
    58    29    57 1   
    59    30    53 1   
    60    31    54 1   
    61    32    57 2   
@<TRIPOS>SUBSTRUCTURE
     1 W8V         1 TEMP              0 ****  ****    0 ROOT
