@<TRIPOS>MOLECULE
W8V
   57    61     1     0     0
SMALL
bcc


@<TRIPOS>ATOM
      1 C10         -1.0180    12.2900    12.6360 ca         1 W8V       0.226100
      2 C12         -2.2650    12.2600    12.0200 ca         1 W8V      -0.306000
      3 C20         -1.7060     9.3330     7.0840 ca         1 W8V      -0.102300
      4 C13         -2.6620    11.0980    11.3720 ca         1 W8V       0.233100
      5 C01          2.4100    10.3440    10.5540 c3         1 W8V       0.040600
      6 C04          3.4470     8.6320    13.4260 cc         1 W8V       0.378800
      7 C05          2.0830     8.2890    13.4910 cc         1 W8V      -0.308300
      8 C06          1.5200     8.8990    12.3920 cd         1 W8V       0.100300
      9 C08         -0.5940    10.0190    11.9630 ca         1 W8V       0.274600
     10 C09         -0.1830    11.1780    12.6190 ca         1 W8V      -0.332000
     11 C15         -1.8310     9.9820    11.3100 ca         1 W8V      -0.277600
     12 C19         -1.7260     9.9030     8.4680 c5         1 W8V       0.155800
     13 C21         -2.1900     8.0350     7.0810 ca         1 W8V      -0.102300
     14 C22         -2.5640     7.6070     8.4650 c5         1 W8V       0.155800
     15 C23         -2.2740     7.3140     5.9010 ca         1 W8V      -0.108000
     16 C24         -1.8630     7.9180     4.7190 ca         1 W8V      -0.125000
     17 C25         -1.3750     9.2230     4.7230 ca         1 W8V      -0.125000
     18 C26         -1.2940     9.9420     5.9100 ca         1 W8V      -0.108000
     19 C27          4.5620     8.2250    14.2930 ca         1 W8V      -0.116500
     20 C28          5.8100     8.0060    13.7020 ca         1 W8V      -0.100000
     21 C29          6.9090     7.6270    14.4540 ca         1 W8V      -0.138000
     22 C30          6.7740     7.4610    15.8250 ca         1 W8V      -0.120000
     23 C31          5.5420     7.6820    16.4210 ca         1 W8V      -0.136000
     24 C32          4.4230     8.0640    15.6810 ca         1 W8V      -0.055300
     25 C33          3.1270     8.3030    16.4010 c3         1 W8V      -0.047800
     26 N02          2.5200     9.5410    11.7470 na         1 W8V       0.114400
     27 N03          3.6830     9.4030    12.3720 nd         1 W8V      -0.517800
     28 N07          0.2250     8.8980    11.9020 nu         1 W8V      -0.641000
     29 N18         -2.2200     8.7800     9.2610 n          1 W8V      -0.466800
     30 O11         -0.6680    13.4280    13.2580 oh         1 W8V      -0.489100
     31 O14         -3.8550    10.9920    10.7620 oh         1 W8V      -0.485100
     32 O17         -2.5900     7.7300    11.2110 o          1 W8V      -0.616100
     33 H1          -2.9130    13.1280    12.0570 ha         1 W8V       0.153000
     34 H2           3.3900    10.4070    10.0910 h1         1 W8V       0.059367
     35 H3           1.7180     9.8730     9.8590 h1         1 W8V       0.059367
     36 H4           2.0520    11.3490    10.7800 h1         1 W8V       0.059367
     37 H5           1.5720     7.6750    14.2110 ha         1 W8V       0.171000
     38 H6           0.7670    11.2060    13.1410 ha         1 W8V       0.151000
     39 H7          -0.7360    10.2220     8.8030 h1         1 W8V       0.062700
     40 H8          -3.6270     7.3640     8.5540 h1         1 W8V       0.062700
     41 H9          -2.6520     6.2990     5.8950 ha         1 W8V       0.135500
     42 H10         -1.9240     7.3710     3.7870 ha         1 W8V       0.133000
     43 H11         -1.0610     9.6810     3.7950 ha         1 W8V       0.133000
     44 H12         -0.9160    10.9570     5.9120 ha         1 W8V       0.135500
     45 H13          5.9110     8.1270    12.6310 ha         1 W8V       0.141000
     46 H14          7.8630     7.4570    13.9710 ha         1 W8V       0.131000
     47 H15          7.6220     7.1640    16.4280 ha         1 W8V       0.130000
     48 H16          5.4440     7.5660    17.4940 ha         1 W8V       0.127000
     49 H17          2.4320     7.4710    16.2740 hc         1 W8V       0.042700
     50 H18          3.2980     8.4160    17.4710 hc         1 W8V       0.042700
     51 H19          2.6190     9.2000    16.0460 hc         1 W8V       0.042700
     52 H20         -0.2410     8.0040    11.9280 hn         1 W8V       0.466800
     53 H21          0.2110    13.3440    13.6450 ho         1 W8V       0.434000
     54 H22         -4.3370    11.8260    10.8040 ho         1 W8V       0.434000
     55 H23         -2.3900    10.7690     8.5290 h1         1 W8V       0.062700
     56 H24         -2.0030     6.7290     8.7960 h1         1 W8V       0.062700
     57 C16         -2.2610     8.7410    10.5970 c          1 W8V       0.711700
@<TRIPOS>BOND
     1     1     2 ar  
     2     1    10 ar  
     3     1    30 1   
     4     2     4 ar  
     5     2    33 1   
     6     3    12 1   
     7     3    13 ar  
     8     3    18 ar  
     9     4    11 ar  
    10     4    31 1   
    11     5    26 1   
    12     5    34 1   
    13     5    35 1   
    14     5    36 1   
    15     6     7 1   
    16     6    19 1   
    17     6    27 2   
    18     7     8 2   
    19     7    37 1   
    20     8    26 1   
    21     8    28 1   
    22     9    10 ar  
    23     9    11 ar  
    24     9    28 1   
    25    10    38 1   
    26    11    57 1   
    27    12    29 1   
    28    12    39 1   
    29    12    55 1   
    30    13    14 1   
    31    13    15 ar  
    32    14    29 1   
    33    14    40 1   
    34    14    56 1   
    35    15    16 ar  
    36    15    41 1   
    37    16    17 ar  
    38    16    42 1   
    39    17    18 ar  
    40    17    43 1   
    41    18    44 1   
    42    19    20 ar  
    43    19    24 ar  
    44    20    21 ar  
    45    20    45 1   
    46    21    22 ar  
    47    21    46 1   
    48    22    23 ar  
    49    22    47 1   
    50    23    24 ar  
    51    23    48 1   
    52    24    25 1   
    53    25    49 1   
    54    25    50 1   
    55    25    51 1   
    56    26    27 1   
    57    28    52 1   
    58    29    57 1   
    59    30    53 1   
    60    31    54 1   
    61    32    57 2   
@<TRIPOS>SUBSTRUCTURE
     1 W8V         1 TEMP              0 ****  ****    0 ROOT
