@<TRIPOS>MOLECULE
W8W
   15    15     1     0     0
SMALL
No Charge or Current Charge


@<TRIPOS>ATOM
      1 N1          -3.3280    13.2510   -33.3990 ns         1 W8W      -0.466500
      2 O1          -2.3640    11.2320   -33.6680 o          1 W8W      -0.501000
      3 C1          -1.4410    14.4870   -34.9350 cc         1 W8W       0.039600
      4 C4          -3.4640    14.5930   -33.5660 c          1 W8W       0.613000
      5 C3          -2.3670    12.4310   -33.8990 c          1 W8W       0.601200
      6 C2          -1.3570    13.1280   -34.7280 cd         1 W8W      -0.249500
      7 Br           0.0380    12.1000   -35.4870 br         1 W8W      -0.023700
      8 O           -4.3890    15.1960   -33.0480 o          1 W8W      -0.544000
      9 N           -2.4830    15.2190   -34.3610 n          1 W8W      -0.312000
     10 C           -2.5880    16.6810   -34.5740 c3         1 W8W       0.096300
     11 H1          -4.0310    12.8080   -32.8300 hn         1 W8W       0.347500
     12 H2          -0.7510    15.0830   -35.5250 h4         1 W8W       0.218000
     13 H3          -3.5420    16.9170   -35.0620 h1         1 W8W       0.060033
     14 H4          -2.5430    17.2000   -33.6070 h1         1 W8W       0.060033
     15 H5          -1.7690    17.0430   -35.2070 h1         1 W8W       0.060033
@<TRIPOS>BOND
     1     1     4 1   
     2     1     5 1   
     3     1    11 1   
     4     2     5 2   
     5     3     6 2   
     6     3     9 1   
     7     3    12 1   
     8     4     8 2   
     9     4     9 1   
    10     5     6 1   
    11     6     7 1   
    12     9    10 1   
    13    10    13 1   
    14    10    14 1   
    15    10    15 1   
@<TRIPOS>SUBSTRUCTURE
     1 W8W         1 TEMP              0 ****  ****    0 ROOT
