@<TRIPOS>MOLECULE
W8W
   15    15     1     0     0
SMALL
abcg2


@<TRIPOS>ATOM
      1 N1          -3.3270    13.2610   -33.4040 ns         1 W8W      -0.466500
      2 O1          -2.3420    11.2300   -33.6820 o          1 W8W      -0.501000
      3 C1          -1.4840    14.4810   -34.9030 cc         1 W8W       0.039600
      4 C4          -3.4720    14.6200   -33.5720 c          1 W8W       0.613000
      5 C3          -2.3380    12.4290   -33.9190 c          1 W8W       0.601200
      6 C2          -1.3700    13.1480   -34.7220 cd         1 W8W      -0.249500
      7 BR           0.0510    12.1730   -35.5010 br         1 W8W      -0.023700
      8 O           -4.3870    15.2500   -33.0700 o          1 W8W      -0.544000
      9 N           -2.4960    15.2130   -34.3550 n          1 W8W      -0.312000
     10 C           -2.5870    16.6610   -34.5690 c3         1 W8W       0.096300
     11 H1          -4.0340    12.8160   -32.8320 hn         1 W8W       0.347500
     12 H2          -0.7740    15.0390   -35.4950 h4         1 W8W       0.218000
     13 H3          -3.5370    16.9050   -35.0410 h1         1 W8W       0.060033
     14 H4          -2.5150    17.1800   -33.6160 h1         1 W8W       0.060033
     15 H5          -1.7680    16.9620   -35.2150 h1         1 W8W       0.060033
@<TRIPOS>BOND
     1     1     4 1   
     2     1     5 1   
     3     1    11 1   
     4     2     5 2   
     5     3     6 2   
     6     3     9 1   
     7     3    12 1   
     8     4     8 2   
     9     4     9 1   
    10     5     6 1   
    11     6     7 1   
    12     9    10 1   
    13    10    13 1   
    14    10    14 1   
    15    10    15 1   
@<TRIPOS>SUBSTRUCTURE
     1 W8W         1 TEMP              0 ****  ****    0 ROOT
