@<TRIPOS>MOLECULE
W8X
   35    36     1     0     0
SMALL
abcg2


@<TRIPOS>ATOM
      1 O23         -6.7800    -2.8530     0.3310 o          1 W8X      -0.704500
      2 C21         -5.5610    -2.6190     0.2190 c          1 W8X       0.730000
      3 O22         -4.6210    -3.4250     0.2310 o          1 W8X      -0.704500
      4 C20         -5.2450    -1.1240     0.0540 c3         1 W8X      -0.003400
      5 O19         -3.8500    -0.9180    -0.1110 os         1 W8X      -0.270100
      6 C12         -3.3890     0.3270    -0.2220 ca         1 W8X       0.227100
      7 C15         -4.1950     1.4640    -0.2010 ca         1 W8X      -0.223000
      8 C17         -3.6060     2.7160    -0.3020 ca         1 W8X       0.181000
      9 CL1         -4.6310     4.1130    -0.2820 cl         1 W8X      -0.233000
     10 C16         -2.2390     2.8830    -0.4120 ca         1 W8X      -0.190000
     11 C14         -1.4470     1.7420    -0.4210 ca         1 W8X      -0.050000
     12 C13         -1.9980     0.4740    -0.3400 ca         1 W8X      -0.216600
     13 C10         -1.1110    -0.7270    -0.4480 c          1 W8X       0.637700
     14 O11         -1.2200    -1.5310    -1.3580 o          1 W8X      -0.563100
     15 N9          -0.1730    -0.8000     0.5140 ns         1 W8X      -0.512900
     16 C8           0.8790    -1.7880     0.5510 c3         1 W8X       0.141300
     17 C2           2.2410    -1.1810     0.3260 ca         1 W8X      -0.085300
     18 C3           3.2840    -1.4320     1.2070 ca         1 W8X      -0.100500
     19 C5           4.5460    -0.8880     1.0010 ca         1 W8X      -0.090000
     20 C6           4.7560    -0.0780    -0.1020 ca         1 W8X      -0.020900
     21 BR7          6.4640     0.6760    -0.3940 br         1 W8X      -0.120100
     22 C4           3.7300     0.1900    -0.9990 ca         1 W8X      -0.090000
     23 C1           2.4800    -0.3640    -0.7770 ca         1 W8X      -0.100500
     24 H2          -5.7920    -0.7330    -0.8110 h1         1 W8X       0.022700
     25 H3          -5.6070    -0.5850     0.9380 h1         1 W8X       0.022700
     26 H4          -5.2690     1.3900    -0.1050 ha         1 W8X       0.144000
     27 H5          -1.7970     3.8660    -0.4900 ha         1 W8X       0.118000
     28 H6          -0.3730     1.8540    -0.5110 ha         1 W8X       0.105000
     29 H7          -0.1830    -0.1100     1.2490 hn         1 W8X       0.312500
     30 H8           0.8590    -2.3060     1.5120 h1         1 W8X       0.071200
     31 H9           0.6680    -2.5330    -0.2160 h1         1 W8X       0.071200
     32 H10          3.1200    -2.0620     2.0730 ha         1 W8X       0.124000
     33 H11          5.3430    -1.0970     1.7020 ha         1 W8X       0.124000
     34 H12          3.8940     0.8210    -1.8630 ha         1 W8X       0.124000
     35 H13          1.6860    -0.1550    -1.4830 ha         1 W8X       0.124000
@<TRIPOS>BOND
     1     1     2 1   
     2     2     3 1   
     3     2     4 1   
     4     4     5 1   
     5     4    24 1   
     6     4    25 1   
     7     5     6 1   
     8     6     7 ar  
     9     6    12 ar  
    10     7     8 ar  
    11     7    26 1   
    12     8     9 1   
    13     8    10 ar  
    14    10    11 ar  
    15    10    27 1   
    16    11    12 ar  
    17    11    28 1   
    18    12    13 1   
    19    13    14 2   
    20    13    15 1   
    21    15    16 1   
    22    15    29 1   
    23    16    17 1   
    24    16    30 1   
    25    16    31 1   
    26    17    18 ar  
    27    17    23 ar  
    28    18    19 ar  
    29    18    32 1   
    30    19    20 ar  
    31    19    33 1   
    32    20    21 1   
    33    20    22 ar  
    34    22    23 ar  
    35    22    34 1   
    36    23    35 1   
@<TRIPOS>SUBSTRUCTURE
     1 W8X         1 TEMP              0 ****  ****    0 ROOT
