@<TRIPOS>MOLECULE
W8X
   35    36     1     0     0
SMALL
No Charge or Current Charge


@<TRIPOS>ATOM
      1 O23         -7.1100    -2.8880     0.6870 o          1 W8X      -0.704500
      2 C21         -5.9270    -2.6430     0.4880 c          1 W8X       0.730000
      3 O22         -5.0710    -3.5150     0.4060 o          1 W8X      -0.704500
      4 C20         -5.5220    -1.1480     0.3380 c3         1 W8X      -0.003400
      5 O19         -4.1120    -0.9600     0.0660 os         1 W8X      -0.270100
      6 C12         -3.5390     0.2910    -0.0880 ca         1 W8X       0.227100
      7 C15         -4.3210     1.4620     0.0420 ca         1 W8X      -0.223000
      8 C17         -3.7320     2.7250    -0.0750 ca         1 W8X       0.181000
      9 Cl1         -4.7190     4.1700     0.0900 cl         1 W8X      -0.233000
     10 C16         -2.3620     2.8410    -0.3220 ca         1 W8X      -0.190000
     11 C14         -1.5720     1.6910    -0.4560 ca         1 W8X      -0.050000
     12 C13         -2.1470     0.3990    -0.3430 ca         1 W8X      -0.216600
     13 C10         -1.2780    -0.8300    -0.5050 c          1 W8X       0.637700
     14 O11         -1.7000    -1.9190    -0.8640 o          1 W8X      -0.563100
     15 N9           0.0670    -0.6400    -0.2810 ns         1 W8X      -0.512900
     16 C8           1.0830    -1.6810    -0.4190 c3         1 W8X       0.141300
     17 C2           2.4690    -1.1320    -0.1160 ca         1 W8X      -0.085300
     18 C3           2.9850    -1.1900     1.1940 ca         1 W8X      -0.100500
     19 C5           4.2630    -0.6760     1.4750 ca         1 W8X      -0.090000
     20 C6           5.0290    -0.1020     0.4470 ca         1 W8X      -0.020900
     21 Br7          6.7680     0.5970     0.8290 br         1 W8X      -0.120100
     22 C4           4.5210    -0.0390    -0.8610 ca         1 W8X      -0.090000
     23 C1           3.2420    -0.5520    -1.1410 ca         1 W8X      -0.100500
     24 H2          -6.1240    -0.7230    -0.4760 h1         1 W8X       0.022700
     25 H3          -5.7990    -0.6400     1.2700 h1         1 W8X       0.022700
     26 H4          -5.3860     1.4120     0.2410 ha         1 W8X       0.144000
     27 H5          -1.9110     3.8250    -0.4170 ha         1 W8X       0.118000
     28 H6          -0.5130     1.8200    -0.6700 ha         1 W8X       0.105000
     29 H7           0.3570     0.2780     0.0250 hn         1 W8X       0.312500
     30 H8           0.8490    -2.5050     0.2680 h1         1 W8X       0.071200
     31 H9           1.0560    -2.0770    -1.4430 h1         1 W8X       0.071200
     32 H10          2.3950    -1.6300     1.9950 ha         1 W8X       0.124000
     33 H11          4.6580    -0.7230     2.4880 ha         1 W8X       0.124000
     34 H12          5.1140     0.4080    -1.6560 ha         1 W8X       0.124000
     35 H13          2.8520    -0.4980    -2.1560 ha         1 W8X       0.124000
@<TRIPOS>BOND
     1     1     2 1   
     2     2     3 1   
     3     2     4 1   
     4     4     5 1   
     5     4    24 1   
     6     4    25 1   
     7     5     6 1   
     8     6     7 ar  
     9     6    12 ar  
    10     7     8 ar  
    11     7    26 1   
    12     8     9 1   
    13     8    10 ar  
    14    10    11 ar  
    15    10    27 1   
    16    11    12 ar  
    17    11    28 1   
    18    12    13 1   
    19    13    14 2   
    20    13    15 1   
    21    15    16 1   
    22    15    29 1   
    23    16    17 1   
    24    16    30 1   
    25    16    31 1   
    26    17    18 ar  
    27    17    23 ar  
    28    18    19 ar  
    29    18    32 1   
    30    19    20 ar  
    31    19    33 1   
    32    20    21 1   
    33    20    22 ar  
    34    22    23 ar  
    35    22    34 1   
    36    23    35 1   
@<TRIPOS>SUBSTRUCTURE
     1 W8X         1 TEMP              0 ****  ****    0 ROOT
