@<TRIPOS>MOLECULE
W8Y
   53    57     1     0     0
SMALL
abcg2


@<TRIPOS>ATOM
      1 C13         -2.4640    10.9620    11.3940 ca         1 W8Y       0.234100
      2 C15         -1.6610     9.8230    11.3930 ca         1 W8Y      -0.277600
      3 C20         -2.1190     7.6880     7.2640 ca         1 W8Y      -0.149300
      4 C22         -1.5980     9.6140     8.5530 c5         1 W8Y       0.062700
      5 C24         -1.3130     8.8660     4.9700 ca         1 W8Y       0.336900
      6 C04          3.5790     8.4480    13.5820 cc         1 W8Y       0.314500
      7 C06          1.6550     8.7090    12.5470 cd         1 W8Y       0.191000
      8 O17         -2.4490     7.5790    11.4010 o          1 W8Y      -0.614100
      9 C27          4.6550     8.0880    14.5080 ca         1 W8Y      -0.116500
     10 C09          0.0070    11.0370    12.6580 ca         1 W8Y      -0.313000
     11 C31          5.3860     7.1220    16.6030 ca         1 W8Y      -0.116500
     12 C16         -2.1170     8.5590    10.7410 c          1 W8Y       0.647700
     13 O14         -3.6550    10.8580    10.7790 oh         1 W8Y      -0.525100
     14 C26         -2.2220     6.9550     6.0970 ca         1 W8Y      -0.051000
     15 C08         -0.4300     9.8600    12.0560 ca         1 W8Y       0.413000
     16 C29          7.0050     8.0180    15.0760 ca         1 W8Y      -0.116500
     17 N23         -1.2150     9.5760     6.0920 nb         1 W8Y      -0.650000
     18 C05          2.2080     8.1390    13.6700 cc         1 W8Y      -0.228000
     19 C10         -0.7990    12.1700    12.6150 ca         1 W8Y       0.228100
     20 C12         -2.0410    12.1430    11.9890 ca         1 W8Y      -0.286000
     21 C19         -2.4710     7.3300     8.6700 c5         1 W8Y       0.156300
     22 C21         -1.6150     8.9770     7.1980 ca         1 W8Y       0.323300
     23 C25         -1.8060     7.5680     4.9220 ca         1 W8Y      -0.160000
     24 C28          5.9890     8.3600    14.1970 ca         1 W8Y      -0.090000
     25 C30          6.7090     7.3970    16.2840 ca         1 W8Y      -0.105000
     26 C32          4.3690     7.4660    15.7240 ca         1 W8Y      -0.090000
     27 N02          2.6660     9.2960    11.8660 na         1 W8Y       0.136800
     28 N03          3.8280     9.1620    12.4930 nd         1 W8Y      -0.517800
     29 N07          0.3590     8.7150    12.0600 nu         1 W8Y      -0.974000
     30 N18         -2.0950     8.5380     9.4020 n          1 W8Y      -0.404800
     31 O11         -0.4240    13.3260    13.1860 oh         1 W8Y      -0.527100
     32 H1          -0.5940     9.9320     8.8460 h1         1 W8Y       0.070200
     33 H2          -2.2470    10.4940     8.5760 h1         1 W8Y       0.070200
     34 H3          -0.9870     9.3550     4.0590 h4         1 W8Y       0.022100
     35 H4           0.9530    11.0670    13.1860 ha         1 W8Y       0.134000
     36 H5           5.1410     6.6400    17.5410 ha         1 W8Y       0.112000
     37 H6           3.5460    10.0300    10.1520 h1         1 W8Y       0.060033
     38 H7           1.8510     9.5520     9.9720 h1         1 W8Y       0.060033
     39 H8           2.2570    11.0620    10.8030 h1         1 W8Y       0.060033
     40 H9          -4.1120    11.7070    10.7720 ho         1 W8Y       0.474000
     41 H10         -2.6110     5.9450     6.0920 ha         1 W8Y       0.126000
     42 H11          8.0320     8.2330    14.8150 ha         1 W8Y       0.112000
     43 H12          1.6850     7.5870    14.4330 ha         1 W8Y       0.151000
     44 H13         -2.6670    13.0280    11.9790 ha         1 W8Y       0.136000
     45 H14         -3.5350     7.1060     8.7890 h1         1 W8Y       0.070200
     46 H15         -1.9130     6.4610     9.0290 h1         1 W8Y       0.070200
     47 H16         -1.8640     7.0500     3.9750 ha         1 W8Y       0.126000
     48 H17          6.2340     8.8390    13.2590 ha         1 W8Y       0.119500
     49 H18          7.5030     7.1300    16.9690 ha         1 W8Y       0.112000
     50 H19          3.3430     7.2510    15.9970 ha         1 W8Y       0.119500
     51 H20         -0.1320     7.8380    12.1430 hn         1 W8Y       0.522000
     52 H21          0.4460    13.2360    13.5910 ho         1 W8Y       0.474000
     53 C01          2.5720    10.0330    10.6310 c3         1 W8Y       0.069900
@<TRIPOS>BOND
     1     1     2 ar  
     2     1    13 1   
     3     1    20 ar  
     4     2    12 1   
     5     2    15 ar  
     6     3    14 ar  
     7     3    21 1   
     8     3    22 ar  
     9     4    22 1   
    10     4    30 1   
    11     4    32 1   
    12     4    33 1   
    13     5    17 ar  
    14     5    23 ar  
    15     5    34 1   
    16     6     9 1   
    17     6    18 1   
    18     6    28 2   
    19     7    18 2   
    20     7    27 1   
    21     7    29 1   
    22     8    12 2   
    23     9    24 ar  
    24     9    26 ar  
    25    10    15 ar  
    26    10    19 ar  
    27    10    35 1   
    28    11    25 ar  
    29    11    26 ar  
    30    11    36 1   
    31    12    30 1   
    32    13    40 1   
    33    14    23 ar  
    34    14    41 1   
    35    15    29 1   
    36    16    24 ar  
    37    16    25 ar  
    38    16    42 1   
    39    17    22 ar  
    40    18    43 1   
    41    19    20 ar  
    42    19    31 1   
    43    20    44 1   
    44    21    30 1   
    45    21    45 1   
    46    21    46 1   
    47    23    47 1   
    48    24    48 1   
    49    25    49 1   
    50    26    50 1   
    51    27    28 1   
    52    27    53 1   
    53    29    51 1   
    54    31    52 1   
    55    37    53 1   
    56    38    53 1   
    57    39    53 1   
@<TRIPOS>SUBSTRUCTURE
     1 W8Y         1 TEMP              0 ****  ****    0 ROOT
