@<TRIPOS>MOLECULE
W8Y
   53    57     1     0     0
SMALL
No Charge or Current Charge


@<TRIPOS>ATOM
      1 C13         -2.5620    11.1680    11.1060 ca         1 W8Y       0.234100
      2 C15         -1.6790    10.1100    11.3860 ca         1 W8Y      -0.277600
      3 C20         -2.0010     7.3780     7.4980 ca         1 W8Y      -0.149300
      4 C22         -1.5600     9.5020     8.4880 c5         1 W8Y       0.062700
      5 C24         -1.1070     8.1370     5.0310 ca         1 W8Y       0.336900
      6 C04          3.6470     8.6290    13.5680 cc         1 W8Y       0.314500
      7 C06          1.6610     9.2590    12.7980 cd         1 W8Y       0.191000
      8 O17         -2.0070     7.7810    11.6580 o          1 W8Y      -0.614100
      9 C27          4.6820     7.8690    14.2970 ca         1 W8Y      -0.116500
     10 C09         -0.2900    11.6420    12.6620 ca         1 W8Y      -0.313000
     11 C31          5.3460     6.0170    15.7640 ca         1 W8Y      -0.116500
     12 C16         -1.9330     8.7270    10.8810 c          1 W8Y       0.647700
     13 O14         -3.7150    10.9540    10.4160 oh         1 W8Y      -0.525100
     14 C26         -2.0490     6.4230     6.4730 ca         1 W8Y      -0.051000
     15 C08         -0.5460    10.3570    12.1720 ca         1 W8Y       0.413000
     16 C29          7.0330     7.5450    14.9250 ca         1 W8Y      -0.116500
     17 N23         -1.0670     9.0490     6.0340 nb         1 W8Y      -0.650000
     18 C05          2.2710     8.3240    13.5590 cc         1 W8Y      -0.228000
     19 C10         -1.1600    12.6890    12.3590 ca         1 W8Y       0.228100
     20 C12         -2.2960    12.4550    11.5840 ca         1 W8Y      -0.286000
     21 C19         -2.4290     7.1950     8.9310 c5         1 W8Y       0.156300
     22 C21         -1.5150     8.6480     7.2460 ca         1 W8Y       0.323300
     23 C25         -1.5870     6.8230     5.2060 ca         1 W8Y      -0.160000
     24 C28          6.0410     8.2620    14.2350 ca         1 W8Y      -0.090000
     25 C30          6.6870     6.4220    15.6900 ca         1 W8Y      -0.105000
     26 C32          4.3510     6.7330    15.0740 ca         1 W8Y      -0.090000
     27 N02          2.7020    10.0820    12.3290 na         1 W8Y       0.136800
     28 N03          3.9390     9.6880    12.8270 nd         1 W8Y      -0.517800
     29 N07          0.3210     9.3190    12.4920 nu         1 W8Y      -0.974000
     30 N18         -2.1320     8.5470     9.5000 n          1 W8Y      -0.404800
     31 O11         -0.9190    13.9380    12.8350 oh         1 W8Y      -0.527100
     32 H1          -0.5540     9.8410     8.7680 h1         1 W8Y       0.070200
     33 H2          -2.2030    10.3760     8.3340 h1         1 W8Y       0.070200
     34 H3          -0.7430     8.4700     4.0590 h4         1 W8Y       0.022100
     35 H4           0.5720    11.8150    13.2970 ha         1 W8Y       0.134000
     36 H5           5.0740     5.1460    16.3560 ha         1 W8Y       0.112000
     37 H6           3.5270    11.2190    10.7550 h1         1 W8Y       0.060033
     38 H7           1.7550    11.0200    10.6910 h1         1 W8Y       0.060033
     39 H8           2.4900    12.1330    11.8880 h1         1 W8Y       0.060033
     40 H9          -4.2070    11.8010    10.3750 ho         1 W8Y       0.474000
     41 H10         -2.4260     5.4170     6.6480 ha         1 W8Y       0.126000
     42 H11          8.0720     7.8620    14.8650 ha         1 W8Y       0.112000
     43 H12          1.7900     7.5050    14.0750 ha         1 W8Y       0.151000
     44 H13         -2.9750    13.2770    11.3740 ha         1 W8Y       0.136000
     45 H14         -3.4980     6.9510     9.0060 h1         1 W8Y       0.070200
     46 H15         -1.8470     6.4030     9.4210 h1         1 W8Y       0.070200
     47 H16         -1.5960     6.1320     4.3680 ha         1 W8Y       0.126000
     48 H17          6.3390     9.1290    13.6490 ha         1 W8Y       0.119500
     49 H18          7.4550     5.8660    16.2240 ha         1 W8Y       0.112000
     50 H19          3.3240     6.3890    15.1550 ha         1 W8Y       0.119500
     51 H20         -0.1590     8.4140    12.5340 hn         1 W8Y       0.522000
     52 H21         -0.1050    13.9030    13.3780 ho         1 W8Y       0.474000
     53 C01          2.6110    11.1820    11.3560 c3         1 W8Y       0.069900
@<TRIPOS>BOND
     1     1     2 ar  
     2     1    13 1   
     3     1    20 ar  
     4     2    12 1   
     5     2    15 ar  
     6     3    14 ar  
     7     3    21 1   
     8     3    22 ar  
     9     4    22 1   
    10     4    30 1   
    11     4    32 1   
    12     4    33 1   
    13     5    17 ar  
    14     5    23 ar  
    15     5    34 1   
    16     6     9 1   
    17     6    18 1   
    18     6    28 2   
    19     7    18 2   
    20     7    27 1   
    21     7    29 1   
    22     8    12 2   
    23     9    24 ar  
    24     9    26 ar  
    25    10    15 ar  
    26    10    19 ar  
    27    10    35 1   
    28    11    25 ar  
    29    11    26 ar  
    30    11    36 1   
    31    12    30 1   
    32    13    40 1   
    33    14    23 ar  
    34    14    41 1   
    35    15    29 1   
    36    16    24 ar  
    37    16    25 ar  
    38    16    42 1   
    39    17    22 ar  
    40    18    43 1   
    41    19    20 ar  
    42    19    31 1   
    43    20    44 1   
    44    21    30 1   
    45    21    45 1   
    46    21    46 1   
    47    23    47 1   
    48    24    48 1   
    49    25    49 1   
    50    26    50 1   
    51    27    28 1   
    52    27    53 1   
    53    29    51 1   
    54    31    52 1   
    55    37    53 1   
    56    38    53 1   
    57    39    53 1   
@<TRIPOS>SUBSTRUCTURE
     1 W8Y         1 TEMP              0 ****  ****    0 ROOT
