@<TRIPOS>MOLECULE
W8Z
   44    46     1     0     0
SMALL
abcg2


@<TRIPOS>ATOM
      1 OAB          1.9990    -2.3470     0.2650 o          1 W8Z      -0.688500
      2 CAS          3.1480    -1.8980     0.2360 c          1 W8Z       0.718200
      3 OAE          4.2220    -2.5100     0.3930 o          1 W8Z      -0.688500
      4 CAV          3.3220    -0.3840    -0.0100 cc         1 W8Z       0.026400
      5 NAO          4.6330    -0.0080     0.1000 ns         1 W8Z      -0.495600
      6 CAX          5.1090     1.2540    -0.0490 c          1 W8Z       0.606000
      7 OAC          6.2850     1.5530     0.0520 o          1 W8Z      -0.610000
      8 NAP          4.1280     2.1680    -0.3250 ns         1 W8Z      -0.471500
      9 CAY          2.7750     1.9180    -0.4640 c          1 W8Z       0.576200
     10 OAD          2.0170     2.8430    -0.7090 o          1 W8Z      -0.589000
     11 CAW          2.3620     0.5280    -0.3020 cd         1 W8Z      -0.291400
     12 CAM          0.8930     0.2670    -0.4500 c3         1 W8Z       0.017800
     13 CAL          0.1210     0.5400     0.8520 c3         1 W8Z      -0.025100
     14 CAT         -1.3640     0.4800     0.6340 ca         1 W8Z      -0.067300
     15 CAJ         -2.0900     1.6250     0.4550 ca         1 W8Z      -0.089000
     16 CAZ         -3.4760     1.6080     0.1740 ca         1 W8Z      -0.064000
     17 CAH         -4.2240     2.7930    -0.0120 ca         1 W8Z      -0.083000
     18 CAF         -5.5620     2.7370    -0.2970 ca         1 W8Z      -0.137000
     19 CAG         -6.2090     1.4890    -0.4070 ca         1 W8Z      -0.116000
     20 CAI         -5.5080     0.3260    -0.2300 ca         1 W8Z      -0.109000
     21 CBA         -4.1250     0.3540     0.0670 ca         1 W8Z      -0.004000
     22 CAK         -3.3780    -0.8340     0.2540 ca         1 W8Z      -0.214000
     23 CAU         -2.0390    -0.7740     0.5460 ca         1 W8Z       0.164100
     24 OAR         -1.2490    -1.8430     0.7810 os         1 W8Z      -0.339100
     25 CAN         -1.7620    -3.1480     0.6920 c3         1 W8Z       0.379600
     26 OAQ         -2.0630    -3.5310    -0.6000 os         1 W8Z      -0.488000
     27 CAA         -0.9440    -3.6210    -1.4610 c3         1 W8Z       0.142900
     28 H2           5.2780    -0.7660     0.2940 hn         1 W8Z       0.490000
     29 H3           4.4280     3.1280    -0.4420 hn         1 W8Z       0.318500
     30 H4           0.5010     0.9250    -1.2280 hc         1 W8Z       0.059200
     31 H5           0.7160    -0.7570    -0.7620 hc         1 W8Z       0.059200
     32 H6           0.4430    -0.1780     1.6070 hc         1 W8Z       0.055700
     33 H7           0.3750     1.5350     1.2230 hc         1 W8Z       0.055700
     34 H8          -1.5850     2.5830     0.5250 ha         1 W8Z       0.120000
     35 H9          -3.7210     3.7490     0.0760 ha         1 W8Z       0.107000
     36 H10         -6.1270     3.6490    -0.4410 ha         1 W8Z       0.100000
     37 H11         -7.2670     1.4530    -0.6330 ha         1 W8Z       0.098000
     38 H12         -6.0090    -0.6310    -0.3180 ha         1 W8Z       0.105000
     39 H13         -3.8990    -1.7760     0.1520 ha         1 W8Z       0.121000
     40 H14         -0.9760    -3.7740     1.1260 h2         1 W8Z       0.061200
     41 H15         -2.6790    -3.2510     1.2800 h2         1 W8Z       0.061200
     42 H16         -0.6000    -2.6410    -1.7980 h1         1 W8Z       0.042700
     43 H17         -0.1010    -4.1270    -0.9790 h1         1 W8Z       0.042700
     44 H18         -1.2510    -4.1990    -2.3310 h1         1 W8Z       0.042700
@<TRIPOS>BOND
     1     1     2 1   
     2     2     3 1   
     3     2     4 1   
     4     4     5 1   
     5     4    11 2   
     6     5     6 1   
     7     5    28 1   
     8     6     7 2   
     9     6     8 1   
    10     8     9 1   
    11     8    29 1   
    12     9    10 2   
    13     9    11 1   
    14    11    12 1   
    15    12    13 1   
    16    12    30 1   
    17    12    31 1   
    18    13    14 1   
    19    13    32 1   
    20    13    33 1   
    21    14    15 ar  
    22    14    23 ar  
    23    15    16 ar  
    24    15    34 1   
    25    16    17 ar  
    26    16    21 ar  
    27    17    18 ar  
    28    17    35 1   
    29    18    19 ar  
    30    18    36 1   
    31    19    20 ar  
    32    19    37 1   
    33    20    21 ar  
    34    20    38 1   
    35    21    22 ar  
    36    22    23 ar  
    37    22    39 1   
    38    23    24 1   
    39    24    25 1   
    40    25    26 1   
    41    25    40 1   
    42    25    41 1   
    43    26    27 1   
    44    27    42 1   
    45    27    43 1   
    46    27    44 1   
@<TRIPOS>SUBSTRUCTURE
     1 W8Z         1 TEMP              0 ****  ****    0 ROOT
