@<TRIPOS>MOLECULE
W8Z
   44    46     1     0     0
SMALL
No Charge or Current Charge


@<TRIPOS>ATOM
      1 OAB          2.1090    -2.3660     0.0510 o          1 W8Z      -0.688500
      2 CAS          3.2180    -1.8600     0.1270 c          1 W8Z       0.718200
      3 OAE          4.2190    -2.5350     0.3480 o          1 W8Z      -0.688500
      4 CAV          3.4120    -0.3590    -0.0410 cc         1 W8Z       0.026400
      5 NAO          4.7270     0.0830     0.0960 ns         1 W8Z      -0.495600
      6 CAX          5.1620     1.3620     0.0110 c          1 W8Z       0.606000
      7 OAC          6.3300     1.6690     0.1430 o          1 W8Z      -0.610000
      8 NAP          4.1840     2.2630    -0.2310 ns         1 W8Z      -0.471500
      9 CAY          2.8520     2.0400    -0.3980 c          1 W8Z       0.576200
     10 OAD          2.0950     2.9740    -0.6060 o          1 W8Z      -0.589000
     11 CAW          2.4350     0.6060    -0.3020 cd         1 W8Z      -0.291400
     12 CAM          0.9430     0.3650    -0.5020 c3         1 W8Z       0.017800
     13 CAL          0.1440     0.4700     0.8150 c3         1 W8Z      -0.025100
     14 CAT         -1.3660     0.4000     0.5830 ca         1 W8Z      -0.067300
     15 CAJ         -2.0690     1.5920     0.3160 ca         1 W8Z      -0.089000
     16 CAZ         -3.4560     1.5690     0.0890 ca         1 W8Z      -0.064000
     17 CAH         -4.1520     2.7640    -0.1770 ca         1 W8Z      -0.083000
     18 CAF         -5.5390     2.7360    -0.4030 ca         1 W8Z      -0.137000
     19 CAG         -6.2340     1.5160    -0.3650 ca         1 W8Z      -0.116000
     20 CAI         -5.5420     0.3210    -0.1000 ca         1 W8Z      -0.109000
     21 CBA         -4.1530     0.3430     0.1270 ca         1 W8Z      -0.004000
     22 CAK         -3.4590    -0.8500     0.3900 ca         1 W8Z      -0.214000
     23 CAU         -2.0640    -0.8310     0.6160 ca         1 W8Z       0.164100
     24 OAR         -1.3510    -1.9860     0.8830 os         1 W8Z      -0.339100
     25 CAN         -1.9170    -3.3040     0.7790 c3         1 W8Z       0.379600
     26 OAQ         -2.1960    -3.5600    -0.6130 os         1 W8Z      -0.488000
     27 CAA         -1.0330    -3.6540    -1.4570 c3         1 W8Z       0.142900
     28 H2           5.4530    -0.6030     0.2830 hn         1 W8Z       0.490000
     29 H3           4.4790     3.2240    -0.2950 hn         1 W8Z       0.318500
     30 H4           0.5310     1.0910    -1.2150 hc         1 W8Z       0.059200
     31 H5           0.7480    -0.6030    -0.9740 hc         1 W8Z       0.059200
     32 H6           0.4760    -0.3170     1.5020 hc         1 W8Z       0.055700
     33 H7           0.3960     1.4170     1.3070 hc         1 W8Z       0.055700
     34 H8          -1.5320     2.5370     0.2830 ha         1 W8Z       0.120000
     35 H9          -3.6210     3.7130    -0.2080 ha         1 W8Z       0.107000
     36 H10         -6.0740     3.6600    -0.6080 ha         1 W8Z       0.100000
     37 H11         -7.3070     1.4950    -0.5400 ha         1 W8Z       0.098000
     38 H12         -6.0870    -0.6200    -0.0730 ha         1 W8Z       0.105000
     39 H13         -4.0150    -1.7820     0.4140 ha         1 W8Z       0.121000
     40 H14         -1.2120    -4.0480     1.1690 h2         1 W8Z       0.061200
     41 H15         -2.8300    -3.3790     1.3800 h2         1 W8Z       0.061200
     42 H16         -0.4820    -2.7050    -1.4780 h1         1 W8Z       0.042700
     43 H17         -0.3540    -4.4420    -1.1040 h1         1 W8Z       0.042700
     44 H18         -1.3270    -3.8960    -2.4860 h1         1 W8Z       0.042700
@<TRIPOS>BOND
     1     1     2 1   
     2     2     3 1   
     3     2     4 1   
     4     4     5 1   
     5     4    11 2   
     6     5     6 1   
     7     5    28 1   
     8     6     7 2   
     9     6     8 1   
    10     8     9 1   
    11     8    29 1   
    12     9    10 2   
    13     9    11 1   
    14    11    12 1   
    15    12    13 1   
    16    12    30 1   
    17    12    31 1   
    18    13    14 1   
    19    13    32 1   
    20    13    33 1   
    21    14    15 ar  
    22    14    23 ar  
    23    15    16 ar  
    24    15    34 1   
    25    16    17 ar  
    26    16    21 ar  
    27    17    18 ar  
    28    17    35 1   
    29    18    19 ar  
    30    18    36 1   
    31    19    20 ar  
    32    19    37 1   
    33    20    21 ar  
    34    20    38 1   
    35    21    22 ar  
    36    22    23 ar  
    37    22    39 1   
    38    23    24 1   
    39    24    25 1   
    40    25    26 1   
    41    25    40 1   
    42    25    41 1   
    43    26    27 1   
    44    27    42 1   
    45    27    43 1   
    46    27    44 1   
@<TRIPOS>SUBSTRUCTURE
     1 W8Z         1 TEMP              0 ****  ****    0 ROOT
