@<TRIPOS>MOLECULE
W90
   33    33     1     0     0
SMALL
No Charge or Current Charge


@<TRIPOS>ATOM
      1 C01         14.7250    -4.8220   -18.8320 c          1 W90       0.604100
      2 C02         16.6810    -3.8300   -20.1700 ca         1 W90       0.025000
      3 N03         15.3800    -3.8670   -19.6010 ns         1 W90      -0.161000
      4 C04         11.6300    -7.0150   -17.5070 c          1 W90       0.720000
      5 C05         12.1650    -5.1680   -19.2860 c3         1 W90      -0.011000
      6 C06         17.5520    -4.9420   -20.2000 ca         1 W90      -0.158500
      7 C07         17.1060    -2.6210   -20.7510 ca         1 W90      -0.158500
      8 C10         19.2390    -3.6200   -21.3560 ca         1 W90      -0.151000
      9 C18         10.8080    -4.4680   -18.9940 c3         1 W90      -0.087100
     10 C19         12.4570    -5.0130   -20.8060 c3         1 W90      -0.087100
     11 C08         18.3770    -2.5160   -21.3380 ca         1 W90       0.160500
     12 C09         18.8230    -4.8320   -20.7880 ca         1 W90       0.160500
     13 O11         15.2520    -5.8540   -18.4360 o          1 W90      -0.542100
     14 C12         13.2800    -4.4410   -18.4570 c3         1 W90      -0.145400
     15 O13         10.4370    -7.1490   -17.2770 o          1 W90      -0.741000
     16 C14         12.0650    -6.7010   -18.9570 c3         1 W90      -0.201400
     17 Cl15        18.8900    -0.9940   -22.0530 cl         1 W90      -0.220000
     18 Cl16        19.8960    -6.2240   -20.8170 cl         1 W90      -0.220000
     19 O17         12.4940    -7.1410   -16.6530 o          1 W90      -0.741000
     20 H20         14.8210    -3.0500   -19.8100 hn         1 W90       0.148000
     21 H21         17.2640    -5.9010   -19.7830 ha         1 W90       0.152500
     22 H22         16.4520    -1.7520   -20.7470 ha         1 W90       0.152500
     23 H23         20.2220    -3.5390   -21.8110 ha         1 W90       0.136000
     24 H29          9.9820    -4.9770   -19.5070 hc         1 W90       0.025867
     25 H30         10.5870    -4.4550   -17.9200 hc         1 W90       0.025867
     26 H31         10.8210    -3.4260   -19.3380 hc         1 W90       0.025867
     27 H34         11.6320    -5.4160   -21.4070 hc         1 W90       0.025867
     28 H33         12.5830    -3.9570   -21.0780 hc         1 W90       0.025867
     29 H32         13.3680    -5.5490   -21.0970 hc         1 W90       0.025867
     30 H25         13.1330    -4.6460   -17.3910 hc         1 W90       0.074200
     31 H24         13.1600    -3.3630   -18.6230 hc         1 W90       0.074200
     32 H26         13.0610    -7.1210   -19.1380 hc         1 W90       0.030700
     33 H27         11.3090    -7.1020   -19.6440 hc         1 W90       0.030700
@<TRIPOS>BOND
     1     1     3 1   
     2     1    13 2   
     3     1    14 1   
     4     2     3 1   
     5     2     6 ar  
     6     2     7 ar  
     7     3    20 1   
     8     4    15 1   
     9     4    16 1   
    10     4    19 1   
    11     5     9 1   
    12     5    10 1   
    13     5    14 1   
    14     5    16 1   
    15     6    12 ar  
    16     6    21 1   
    17     7    11 ar  
    18     7    22 1   
    19     8    11 ar  
    20     8    12 ar  
    21     8    23 1   
    22     9    24 1   
    23     9    25 1   
    24     9    26 1   
    25    10    27 1   
    26    10    28 1   
    27    10    29 1   
    28    11    17 1   
    29    12    18 1   
    30    14    30 1   
    31    14    31 1   
    32    16    32 1   
    33    16    33 1   
@<TRIPOS>SUBSTRUCTURE
     1 W90         1 TEMP              0 ****  ****    0 ROOT
