@<TRIPOS>MOLECULE
W90
   33    33     1     0     0
SMALL
abcg2


@<TRIPOS>ATOM
      1 C01         14.6200    -4.6070   -18.7620 c          1 W90       0.604100
      2 C02         16.5620    -3.7880   -20.1120 ca         1 W90       0.025000
      3 N03         15.2540    -3.7490   -19.6240 ns         1 W90      -0.161000
      4 C04         12.1720    -7.1990   -17.6720 c          1 W90       0.720000
      5 C05         12.1660    -5.1100   -19.3560 c3         1 W90      -0.011000
      6 C06         17.4390    -4.8510   -19.8740 ca         1 W90      -0.158500
      7 C07         16.9840    -2.7000   -20.8880 ca         1 W90      -0.158500
      8 C10         19.1600    -3.7320   -21.1890 ca         1 W90      -0.151000
      9 C18         10.7530    -4.6210   -19.0120 c3         1 W90      -0.087100
     10 C19         12.4150    -4.8620   -20.8520 c3         1 W90      -0.087100
     11 C08         18.2640    -2.6930   -21.4080 ca         1 W90       0.160500
     12 C09         18.7140    -4.7940   -20.4180 ca         1 W90       0.160500
     13 O11         15.1810    -5.5670   -18.2460 o          1 W90      -0.542100
     14 C12         13.1680    -4.2790   -18.5070 c3         1 W90      -0.145400
     15 O13         11.8570    -6.4490   -16.7140 o          1 W90      -0.741000
     16 C14         12.3010    -6.6210   -19.0990 c3         1 W90      -0.201400
     17 CL15        18.7770    -1.3280   -22.3720 cl         1 W90      -0.220000
     18 CL16        19.8080    -6.1270   -20.1200 cl         1 W90      -0.220000
     19 O17         12.3940    -8.4370   -17.5880 o          1 W90      -0.741000
     20 H20         14.6980    -2.9740   -19.9550 hn         1 W90       0.148000
     21 H21         17.1270    -5.6930   -19.2820 ha         1 W90       0.152500
     22 H22         16.3130    -1.8730   -21.0770 ha         1 W90       0.152500
     23 H23         20.1580    -3.7120   -21.6010 ha         1 W90       0.136000
     24 H29         10.0130    -5.1750   -19.5940 hc         1 W90       0.025867
     25 H30         10.5390    -4.7680   -17.9550 hc         1 W90       0.025867
     26 H31         10.6440    -3.5600   -19.2510 hc         1 W90       0.025867
     27 H34         11.6580    -5.3760   -21.4480 hc         1 W90       0.025867
     28 H33         12.3620    -3.7950   -21.0850 hc         1 W90       0.025867
     29 H32         13.3930    -5.2300   -21.1660 hc         1 W90       0.025867
     30 H25         12.9700    -4.4840   -17.4570 hc         1 W90       0.074200
     31 H24         12.9850    -3.2200   -18.6990 hc         1 W90       0.074200
     32 H26         13.2620    -6.9690   -19.4840 hc         1 W90       0.030700
     33 H27         11.5430    -7.1300   -19.7050 hc         1 W90       0.030700
@<TRIPOS>BOND
     1     1     3 1   
     2     1    13 2   
     3     1    14 1   
     4     2     3 1   
     5     2     6 ar  
     6     2     7 ar  
     7     3    20 1   
     8     4    15 1   
     9     4    16 1   
    10     4    19 1   
    11     5     9 1   
    12     5    10 1   
    13     5    14 1   
    14     5    16 1   
    15     6    12 ar  
    16     6    21 1   
    17     7    11 ar  
    18     7    22 1   
    19     8    11 ar  
    20     8    12 ar  
    21     8    23 1   
    22     9    24 1   
    23     9    25 1   
    24     9    26 1   
    25    10    27 1   
    26    10    28 1   
    27    10    29 1   
    28    11    17 1   
    29    12    18 1   
    30    14    30 1   
    31    14    31 1   
    32    16    32 1   
    33    16    33 1   
@<TRIPOS>SUBSTRUCTURE
     1 W90         1 TEMP              0 ****  ****    0 ROOT
