@<TRIPOS>MOLECULE
W91
   39    41     1     0     0
SMALL
No Charge or Current Charge


@<TRIPOS>ATOM
      1 C3           0.3410    -0.0240     7.2650 cc         1 W91       0.278300
      2 C31          1.0970    -0.3090     8.5290 c3         1 W91      -0.133400
      3 C4           0.9500     0.5330     6.1300 cc         1 W91      -0.248000
      4 C5          -0.0430     0.6340     5.2150 cd         1 W91       0.183300
      5 O1          -1.2130     0.1660     5.7540 os         1 W91      -0.074700
      6 N2          -0.9490    -0.2660     7.1060 nd         1 W91      -0.363300
      7 C1C         -0.0260     1.1540     3.8040 c3         1 W91      -0.114700
      8 C2C         -0.0740     0.0210     2.7540 c3         1 W91      -0.079400
      9 C3C         -0.0490     0.5400     1.3040 c3         1 W91       0.166600
     10 O1B         -0.0940    -0.6000     0.4350 os         1 W91      -0.346100
     11 C1B         -0.0850    -0.3990    -0.9280 ca         1 W91       0.140100
     12 C2B          1.1330    -0.4210    -1.6360 ca         1 W91       0.085000
     13 Cl2          2.6600    -0.6980    -0.7970 cl         1 W91      -0.171000
     14 C3B          1.1440    -0.2180    -3.0270 ca         1 W91      -0.052000
     15 C4B         -0.0590     0.0060    -3.7330 ca         1 W91      -0.117900
     16 C5B         -1.2770     0.0200    -3.0140 ca         1 W91      -0.052000
     17 C6B         -1.2920    -0.1820    -1.6230 ca         1 W91       0.085000
     18 Cl1         -2.8380    -0.1650    -0.7730 cl         1 W91      -0.171000
     19 C2A         -0.0420     0.2210    -5.2150 ce         1 W91       0.634200
     20 N3A         -1.1040     0.4130    -5.9340 n2         1 W91      -0.633900
     21 C4A         -0.6320     0.4480    -7.3400 c5         1 W91       0.069800
     22 C5A          0.8800     0.7120    -7.1840 c5         1 W91       0.116600
     23 O1A          1.1630     0.1750    -5.8820 os         1 W91      -0.453600
     24 H311         1.5300     0.6120     8.9370 hc         1 W91       0.056367
     25 H312         0.4430    -0.7430     9.2950 hc         1 W91       0.056367
     26 H313         1.9130    -1.0150     8.3400 hc         1 W91       0.056367
     27 H4           1.9910     0.8130     6.0250 ha         1 W91       0.151000
     28 H1C1        -0.8800     1.8250     3.6520 hc         1 W91       0.064200
     29 H1C2         0.8760     1.7570     3.6450 hc         1 W91       0.064200
     30 H2C1         0.7810    -0.6500     2.9070 hc         1 W91       0.070200
     31 H2C2        -0.9820    -0.5750     2.9030 hc         1 W91       0.070200
     32 H3C1        -0.9120     1.1960     1.1310 h1         1 W91       0.038200
     33 H3C2         0.8680     1.1200     1.1330 h1         1 W91       0.038200
     34 H3B          2.0960    -0.2370    -3.5530 ha         1 W91       0.154000
     35 H5B         -2.2190     0.1870    -3.5320 ha         1 W91       0.154000
     36 H4A1        -0.8230    -0.5130    -7.8370 h1         1 W91       0.073700
     37 H4A2        -1.1290     1.2410    -7.9160 h1         1 W91       0.073700
     38 H5A1         1.4940     0.2200    -7.9500 h1         1 W91       0.065200
     39 H5A2         1.0980     1.7890    -7.1790 h1         1 W91       0.065200
@<TRIPOS>BOND
     1     1     2 1   
     2     1     3 1   
     3     1     6 2   
     4     2    24 1   
     5     2    25 1   
     6     2    26 1   
     7     3     4 2   
     8     3    27 1   
     9     4     5 1   
    10     4     7 1   
    11     5     6 1   
    12     7     8 1   
    13     7    28 1   
    14     7    29 1   
    15     8     9 1   
    16     8    30 1   
    17     8    31 1   
    18     9    10 1   
    19     9    32 1   
    20     9    33 1   
    21    10    11 1   
    22    11    12 ar  
    23    11    17 ar  
    24    12    13 1   
    25    12    14 ar  
    26    14    15 ar  
    27    14    34 1   
    28    15    16 ar  
    29    15    19 1   
    30    16    17 ar  
    31    16    35 1   
    32    17    18 1   
    33    19    20 2   
    34    19    23 1   
    35    20    21 1   
    36    21    22 1   
    37    21    36 1   
    38    21    37 1   
    39    22    23 1   
    40    22    38 1   
    41    22    39 1   
@<TRIPOS>SUBSTRUCTURE
     1 W91         1 TEMP              0 ****  ****    0 ROOT
