@<TRIPOS>MOLECULE
W91
   39    41     1     0     0
SMALL
abcg2


@<TRIPOS>ATOM
      1 C3           0.4270     0.0270     7.1850 cc         1 W91       0.278300
      2 C31          1.0120    -0.1620     8.5380 c3         1 W91      -0.133400
      3 C4           1.0000     0.6970     6.0720 cc         1 W91      -0.248000
      4 C5           0.0640     0.5830     5.1010 cd         1 W91       0.183300
      5 O1          -0.9820    -0.0960     5.5830 os         1 W91      -0.074700
      6 N2          -0.7500    -0.4420     6.8850 nd         1 W91      -0.363300
      7 C1C          0.0090     1.0400     3.6900 c3         1 W91      -0.114700
      8 C2C         -0.0520    -0.1170     2.6920 c3         1 W91      -0.079400
      9 C3C         -0.0580     0.4060     1.2730 c3         1 W91       0.166600
     10 O1B         -0.1720    -0.7230     0.3950 os         1 W91      -0.346100
     11 C1B         -0.1350    -0.4440    -0.9170 ca         1 W91       0.140100
     12 C2B          1.0700    -0.4010    -1.6130 ca         1 W91       0.085000
     13 CL2          2.5320    -0.6850    -0.7440 cl         1 W91      -0.171000
     14 C3B          1.1150    -0.1640    -2.9760 ca         1 W91      -0.052000
     15 C4B         -0.0710     0.0510    -3.6690 ca         1 W91      -0.117900
     16 C5B         -1.2890     0.0230    -2.9950 ca         1 W91      -0.052000
     17 C6B         -1.3090    -0.2140    -1.6360 ca         1 W91       0.085000
     18 CL1         -2.8110    -0.2650    -0.7930 cl         1 W91      -0.171000
     19 C2A         -0.0650     0.2990    -5.1170 ce         1 W91       0.634200
     20 N3A         -1.0920     0.5030    -5.8250 n2         1 W91      -0.633900
     21 C4A         -0.6310     0.6920    -7.1930 c5         1 W91       0.069800
     22 C5A          0.9000     0.5600    -7.1090 c5         1 W91       0.116600
     23 O1A          1.1350     0.3020    -5.7130 os         1 W91      -0.453600
     24 H311         1.2200     0.8020     9.0030 hc         1 W91       0.056367
     25 H312         0.3380    -0.7200     9.1850 hc         1 W91       0.056367
     26 H313         1.9570    -0.7020     8.4740 hc         1 W91       0.056367
     27 H4           1.9580     1.1860     6.0140 ha         1 W91       0.151000
     28 H1C1        -0.8580     1.6950     3.5540 hc         1 W91       0.064200
     29 H1C2         0.8940     1.6510     3.5070 hc         1 W91       0.064200
     30 H2C1         0.8070    -0.7760     2.8360 hc         1 W91       0.070200
     31 H2C2        -0.9520    -0.7120     2.8600 hc         1 W91       0.070200
     32 H3C1        -0.9000     1.0870     1.1150 h1         1 W91       0.038200
     33 H3C2         0.8650     0.9540     1.0580 h1         1 W91       0.038200
     34 H3B          2.0700    -0.1450    -3.4810 ha         1 W91       0.154000
     35 H5B         -2.2110     0.1900    -3.5340 ha         1 W91       0.154000
     36 H4A1        -1.0790    -0.0580    -7.8480 h1         1 W91       0.073700
     37 H4A2        -0.9450     1.6690    -7.5650 h1         1 W91       0.073700
     38 H5A1         1.2960    -0.2730    -7.6890 h1         1 W91       0.065200
     39 H5A2         1.4300     1.4700    -7.3900 h1         1 W91       0.065200
@<TRIPOS>BOND
     1     1     2 1   
     2     1     3 1   
     3     1     6 2   
     4     2    24 1   
     5     2    25 1   
     6     2    26 1   
     7     3     4 2   
     8     3    27 1   
     9     4     5 1   
    10     4     7 1   
    11     5     6 1   
    12     7     8 1   
    13     7    28 1   
    14     7    29 1   
    15     8     9 1   
    16     8    30 1   
    17     8    31 1   
    18     9    10 1   
    19     9    32 1   
    20     9    33 1   
    21    10    11 1   
    22    11    12 ar  
    23    11    17 ar  
    24    12    13 1   
    25    12    14 ar  
    26    14    15 ar  
    27    14    34 1   
    28    15    16 ar  
    29    15    19 1   
    30    16    17 ar  
    31    16    35 1   
    32    17    18 1   
    33    19    20 2   
    34    19    23 1   
    35    20    21 1   
    36    21    22 1   
    37    21    36 1   
    38    21    37 1   
    39    22    23 1   
    40    22    38 1   
    41    22    39 1   
@<TRIPOS>SUBSTRUCTURE
     1 W91         1 TEMP              0 ****  ****    0 ROOT
