@<TRIPOS>MOLECULE
W93
   25    25     1     0     0
SMALL
abcg2


@<TRIPOS>ATOM
      1 C7          -3.2140    15.0990   -34.1580 c3         1 W93       0.209800
      2 C8          -3.7910    15.7190   -35.4290 c3         1 W93       0.164600
      3 O1          -2.7130    16.1090   -36.2820 oh         1 W93      -0.671000
      4 C1          -0.4750    12.5150   -34.8530 ca         1 W93       0.138100
      5 C5          -2.4950    13.7880   -34.4620 ca         1 W93      -0.072300
      6 C6          -1.1050    13.7220   -34.5490 ca         1 W93      -0.180000
      7 C4          -3.2480    12.6350   -34.6750 ca         1 W93      -0.145000
      8 C3          -2.6160    11.4330   -34.9800 ca         1 W93      -0.075000
      9 C2          -1.2340    11.3640   -35.0710 ca         1 W93      -0.142000
     10 N           -2.4400    16.1150   -33.4460 n8         1 W93      -1.001200
     11 C            1.7000    13.5130   -34.7370 c3         1 W93       0.148900
     12 H1          -4.0800    14.8480   -33.5370 h1         1 W93       0.066700
     13 H2          -4.3930    16.5900   -35.1520 h1         1 W93       0.032700
     14 H3          -4.4350    14.9900   -35.9300 h1         1 W93       0.032700
     15 H4          -3.0730    16.6320   -37.0080 ho         1 W93       0.443000
     16 H5          -0.5200    14.6130   -34.3760 ha         1 W93       0.113000
     17 H6          -4.3280    12.6770   -34.5990 ha         1 W93       0.111000
     18 H7          -3.2050    10.5380   -35.1410 ha         1 W93       0.114000
     19 H8          -0.7300    10.4340   -35.3000 ha         1 W93       0.127000
     20 H9          -1.9710    15.7070   -32.6450 hn         1 W93       0.405500
     21 H10         -1.7170    16.4870   -34.0520 hn         1 W93       0.405500
     22 H12          2.7240    13.1730   -34.8670 h1         1 W93       0.041367
     23 H13          1.4790    14.3000   -35.4610 h1         1 W93       0.041367
     24 H14          1.5700    13.9040   -33.7240 h1         1 W93       0.041367
     25 O            0.8770    12.3680   -34.9550 os         1 W93      -0.352100
@<TRIPOS>BOND
     1     1     2 1   
     2     1     5 1   
     3     1    10 1   
     4     1    12 1   
     5     2     3 1   
     6     2    13 1   
     7     2    14 1   
     8     3    15 1   
     9     4     6 ar  
    10     4     9 ar  
    11     4    25 1   
    12     5     6 ar  
    13     5     7 ar  
    14     6    16 1   
    15     7     8 ar  
    16     7    17 1   
    17     8     9 ar  
    18     8    18 1   
    19     9    19 1   
    20    10    20 1   
    21    10    21 1   
    22    11    22 1   
    23    11    23 1   
    24    11    24 1   
    25    11    25 1   
@<TRIPOS>SUBSTRUCTURE
     1 W93         1 TEMP              0 ****  ****    0 ROOT
