@<TRIPOS>MOLECULE
W93
   25    25     1     0     0
SMALL
No Charge or Current Charge


@<TRIPOS>ATOM
      1 C7          -3.3830    15.0480   -34.2780 c3         1 W93       0.209800
      2 C8          -3.4850    15.8870   -35.5960 c3         1 W93       0.164600
      3 O1          -2.2340    16.5200   -35.9440 oh         1 W93      -0.671000
      4 C1          -0.5150    12.5110   -34.8460 ca         1 W93       0.138100
      5 C5          -2.6070    13.7370   -34.4660 ca         1 W93      -0.072300
      6 C6          -1.2090    13.7300   -34.6770 ca         1 W93      -0.180000
      7 C4          -3.2970    12.5080   -34.4230 ca         1 W93      -0.145000
      8 C3          -2.6090    11.2950   -34.5900 ca         1 W93      -0.075000
      9 C2          -1.2210    11.2990   -34.8010 ca         1 W93      -0.142000
     10 N           -2.8120    15.8330   -33.1570 n8         1 W93      -1.001200
     11 C            1.6650    13.6360   -35.1290 c3         1 W93       0.148900
     12 H1          -4.4100    14.7810   -33.9910 h1         1 W93       0.066700
     13 H2          -4.2600    16.6530   -35.4590 h1         1 W93       0.032700
     14 H3          -3.8200    15.2290   -36.4090 h1         1 W93       0.032700
     15 H4          -2.3960    17.0420   -36.7600 ho         1 W93       0.443000
     16 H5          -0.6780    14.6750   -34.7090 ha         1 W93       0.113000
     17 H6          -4.3720    12.4900   -34.2610 ha         1 W93       0.111000
     18 H7          -3.1520    10.3520   -34.5560 ha         1 W93       0.114000
     19 H8          -0.6900    10.3590   -34.9310 ha         1 W93       0.127000
     20 H9          -2.5490    15.1800   -32.4120 hn         1 W93       0.405500
     21 H10         -1.9130    16.2010   -33.4860 hn         1 W93       0.405500
     22 H12          2.7130    13.3640   -35.3060 h1         1 W93       0.041367
     23 H13          1.3390    14.2860   -35.9520 h1         1 W93       0.041367
     24 H14          1.6140    14.2030   -34.1910 h1         1 W93       0.041367
     25 O            0.8480    12.4530   -35.0580 os         1 W93      -0.352100
@<TRIPOS>BOND
     1     1     2 1   
     2     1     5 1   
     3     1    10 1   
     4     1    12 1   
     5     2     3 1   
     6     2    13 1   
     7     2    14 1   
     8     3    15 1   
     9     4     6 ar  
    10     4     9 ar  
    11     4    25 1   
    12     5     6 ar  
    13     5     7 ar  
    14     6    16 1   
    15     7     8 ar  
    16     7    17 1   
    17     8     9 ar  
    18     8    18 1   
    19     9    19 1   
    20    10    20 1   
    21    10    21 1   
    22    11    22 1   
    23    11    23 1   
    24    11    24 1   
    25    11    25 1   
@<TRIPOS>SUBSTRUCTURE
     1 W93         1 TEMP              0 ****  ****    0 ROOT
