@<TRIPOS>MOLECULE
W94
   61    65     1     0     0
SMALL
bcc


@<TRIPOS>ATOM
      1 C1           2.9570    -0.2320    -0.1160 cc         1 W94      -0.071600
      2 C2           3.3760    -1.5430    -0.0790 cd         1 W94      -0.261300
      3 C3           4.6860    -1.4780     0.4070 cd         1 W94       0.197600
      4 N4           5.0620    -0.2430     0.6560 nc         1 W94      -0.456800
      5 N5           4.0070     0.5020     0.3420 na         1 W94       0.187300
      6 C6           4.0960     1.9090     0.4980 ca         1 W94      -0.002200
      7 C7           3.1570     2.5840     1.2660 ca         1 W94      -0.113500
      8 C8           3.2550     3.9610     1.4070 ca         1 W94      -0.120500
      9 C9           4.2950     4.6530     0.8020 ca         1 W94      -0.117000
     10 C10          5.2390     3.9650     0.0490 ca         1 W94      -0.120500
     11 C11          5.1400     2.5910    -0.1110 ca         1 W94      -0.113500
     12 C12          5.6300    -2.6060     0.6140 c3         1 W94       0.656600
     13 F13          6.2390    -2.9640    -0.5270 f          1 W94      -0.229633
     14 F14          6.5900    -2.3030     1.4900 f          1 W94      -0.229633
     15 F15          4.9930    -3.6920     1.0650 f          1 W94      -0.229633
     16 C16          1.6550     0.3380    -0.5720 c6         1 W94      -0.002400
     17 C17          1.2970    -0.1250    -1.9850 c6         1 W94      -0.069900
     18 C18         -0.0500     0.4440    -2.4040 c6         1 W94       0.173800
     19 N19         -1.0900     0.0600    -1.4680 n3         1 W94      -0.724600
     20 C20         -0.7990     0.5540    -0.1340 c6         1 W94       0.173800
     21 C21          0.5110    -0.0240     0.3790 c6         1 W94      -0.069900
     22 C22         -2.4240     0.3470    -1.9560 c5         1 W94       0.154500
     23 C23         -3.5350    -0.4750    -1.2860 c5         1 W94      -0.099400
     24 C24         -4.8060     0.4030    -1.4530 c5         1 W94       0.075500
     25 N25         -4.3970     1.6550    -2.0840 n7         1 W94      -0.752200
     26 C26         -2.9670     1.7830    -1.8540 c5         1 W94       0.106800
     27 C27         -5.4350     0.6800    -0.0930 c          1 W94       0.682100
     28 N28         -6.2150    -0.2940     0.4220 n          1 W94      -0.497800
     29 C29         -6.8390    -0.1170     1.7290 c5         1 W94       0.104000
     30 C30         -7.8770    -1.2160     1.8680 c5         1 W94      -0.004300
     31 S31         -7.1310    -2.6510     1.0500 ss         1 W94      -0.323200
     32 C32         -6.4970    -1.5560    -0.2450 c5         1 W94       0.192100
     33 O33         -5.2210     1.7150     0.5190 o          1 W94      -0.572100
     34 H2           2.8140    -2.4160    -0.3680 ha         1 W94       0.178000
     35 H7           2.3620     2.0410     1.7600 ha         1 W94       0.150000
     36 H8           2.5220     4.4890     2.0020 ha         1 W94       0.140000
     37 H9           4.3740     5.7250     0.9200 ha         1 W94       0.138000
     38 H10          6.0510     4.5000    -0.4240 ha         1 W94       0.140000
     39 H11          5.8670     2.0530    -0.7050 ha         1 W94       0.150000
     40 H16          1.7380     1.4290    -0.5990 hc         1 W94       0.060700
     41 H17          2.0650     0.1940    -2.6930 hc         1 W94       0.055200
     42 H17A         1.2520    -1.2170    -2.0210 hc         1 W94       0.055200
     43 H18          0.0390     1.5400    -2.5020 h1         1 W94       0.035700
     44 H18A        -0.3100     0.0620    -3.3930 h1         1 W94       0.035700
     45 H20         -0.7280     1.6540    -0.1020 h1         1 W94       0.035700
     46 H20A        -1.6050     0.2750     0.5480 h1         1 W94       0.035700
     47 H21          0.4280    -1.1110     0.4580 hc         1 W94       0.055200
     48 H21A         0.7070     0.3580     1.3840 hc         1 W94       0.055200
     49 H22         -2.4240     0.0860    -3.0200 h1         1 W94       0.049700
     50 H23         -3.6510    -1.4490    -1.7620 hc         1 W94       0.062200
     51 H23A        -3.3060    -0.6660    -0.2350 hc         1 W94       0.062200
     52 H24         -5.5350    -0.0910    -2.0990 h1         1 W94       0.061700
     53 HN25        -4.5570     1.5680    -3.0800 hn         1 W94       0.347800
     54 H26         -2.7920     2.1960    -0.8570 h1         1 W94       0.067200
     55 H26A        -2.5190     2.4670    -2.5760 h1         1 W94       0.067200
     56 H29         -6.0910    -0.1940     2.5210 h1         1 W94       0.069200
     57 H29A        -7.3090     0.8640     1.8000 h1         1 W94       0.069200
     58 H30         -8.0830    -1.4530     2.9100 h1         1 W94       0.081700
     59 H30A        -8.8130    -0.9490     1.3760 h1         1 W94       0.081700
     60 H32         -7.2400    -1.4340    -1.0360 h2         1 W94       0.068700
     61 H32A        -5.6040    -2.0120    -0.6680 h2         1 W94       0.068700
@<TRIPOS>BOND
     1     1     2 2   
     2     1     5 1   
     3     1    16 1   
     4     2     3 1   
     5     2    34 1   
     6     3     4 2   
     7     3    12 1   
     8     4     5 1   
     9     5     6 1   
    10     6     7 ar  
    11     6    11 ar  
    12     7     8 ar  
    13     7    35 1   
    14     8     9 ar  
    15     8    36 1   
    16     9    10 ar  
    17     9    37 1   
    18    10    11 ar  
    19    10    38 1   
    20    11    39 1   
    21    12    13 1   
    22    12    14 1   
    23    12    15 1   
    24    16    17 1   
    25    16    21 1   
    26    16    40 1   
    27    17    18 1   
    28    17    41 1   
    29    17    42 1   
    30    18    19 1   
    31    18    43 1   
    32    18    44 1   
    33    19    20 1   
    34    19    22 1   
    35    20    21 1   
    36    20    45 1   
    37    20    46 1   
    38    21    47 1   
    39    21    48 1   
    40    22    23 1   
    41    22    26 1   
    42    22    49 1   
    43    23    24 1   
    44    23    50 1   
    45    23    51 1   
    46    24    25 1   
    47    24    27 1   
    48    24    52 1   
    49    25    26 1   
    50    25    53 1   
    51    26    54 1   
    52    26    55 1   
    53    27    28 1   
    54    27    33 2   
    55    28    29 1   
    56    28    32 1   
    57    29    30 1   
    58    29    56 1   
    59    29    57 1   
    60    30    31 1   
    61    30    58 1   
    62    30    59 1   
    63    31    32 1   
    64    32    60 1   
    65    32    61 1   
@<TRIPOS>SUBSTRUCTURE
     1 W94         1 TEMP              0 ****  ****    0 ROOT
