@<TRIPOS>MOLECULE
W94
   61    65     1     0     0
SMALL
No Charge or Current Charge


@<TRIPOS>ATOM
      1 C1           2.5690    -0.2280    -0.0460 cc         1 W94      -0.122300
      2 C2           3.0240    -1.5170    -0.0100 cd         1 W94      -0.178000
      3 C3           4.2560    -1.5260     0.6990 cd         1 W94       0.132300
      4 N4           4.6060    -0.3160     1.1160 nc         1 W94      -0.456800
      5 N5           3.5660     0.4510     0.6440 na         1 W94       0.238000
      6 C6           3.5360     1.8190     0.9140 ca         1 W94      -0.002200
      7 C7           2.5320     2.3600     1.7420 ca         1 W94      -0.095500
      8 C8           2.4980     3.7410     2.0050 ca         1 W94      -0.102500
      9 C9           3.4700     4.5880     1.4440 ca         1 W94      -0.099000
     10 C10          4.4770     4.0530     0.6220 ca         1 W94      -0.102500
     11 C11          4.5110     2.6730     0.3580 ca         1 W94      -0.095500
     12 C12          5.1210    -2.7450     0.9860 c3         1 W94       0.292700
     13 F13          6.3640    -2.6160     0.4660 f          1 W94      -0.108333
     14 F14          5.2680    -2.9590     2.3140 f          1 W94      -0.108333
     15 F15          4.5960    -3.8780     0.4640 f          1 W94      -0.108333
     16 C16          1.3150     0.3150    -0.6980 c6         1 W94      -0.002400
     17 C17          1.2400    -0.0950    -2.1870 c6         1 W94      -0.069900
     18 C18         -0.0780     0.3970    -2.8320 c6         1 W94       0.173800
     19 N19         -1.2780    -0.1020    -2.1000 n3         1 W94      -0.724600
     20 C20         -1.2320     0.3070    -0.6560 c6         1 W94       0.173800
     21 C21          0.0550    -0.1940     0.0390 c6         1 W94      -0.069900
     22 C22         -2.5650     0.1040    -2.8620 c5         1 W94       0.154500
     23 C23         -3.7540    -0.6300    -2.1560 c5         1 W94      -0.099400
     24 C24         -4.7690     0.5120    -1.8030 c5         1 W94       0.075500
     25 N25         -4.4750     1.5670    -2.8340 n7         1 W94      -0.807400
     26 C26         -2.9910     1.6120    -2.8730 c5         1 W94       0.106800
     27 C27         -4.6040     0.9480    -0.2780 c          1 W94       0.615100
     28 N28         -5.1370     0.0120     0.6460 n          1 W94      -0.430800
     29 C29         -4.9640     0.2230     2.1150 c5         1 W94       0.104000
     30 C30         -5.8940    -0.8070     2.8120 c5         1 W94       0.043600
     31 S31         -5.8040    -2.2950     1.7330 ss         1 W94      -0.419000
     32 C32         -5.9560    -1.1730     0.2770 c5         1 W94       0.240000
     33 O33         -4.0770     1.9820     0.1200 o          1 W94      -0.572100
     34 H2           2.5320    -2.3800    -0.4460 ha         1 W94       0.160000
     35 H7           1.7790     1.7100     2.1820 ha         1 W94       0.132000
     36 H8           1.7200     4.1540     2.6430 ha         1 W94       0.122000
     37 H9           3.4440     5.6560     1.6480 ha         1 W94       0.120000
     38 H10          5.2300     4.7080     0.1890 ha         1 W94       0.122000
     39 H11          5.2910     2.2640    -0.2800 ha         1 W94       0.132000
     40 H16          1.3170     1.4140    -0.6530 hc         1 W94       0.060700
     41 H17          2.0970     0.3200    -2.7350 hc         1 W94       0.055200
     42 H17A         1.3020    -1.1870    -2.2860 hc         1 W94       0.055200
     43 H18         -0.0770     1.4970    -2.8550 h1         1 W94       0.035700
     44 H18A        -0.1010     0.0540    -3.8760 h1         1 W94       0.035700
     45 H20         -1.2700     1.4010    -0.5600 h1         1 W94       0.035700
     46 H20A        -2.0860    -0.0950    -0.0960 h1         1 W94       0.035700
     47 H21          0.0490    -1.2930     0.0650 hc         1 W94       0.055200
     48 H21A         0.0650     0.1440     1.0840 hc         1 W94       0.055200
     49 H22         -2.4710    -0.2690    -3.8920 h1         1 W94       0.049700
     50 H23         -4.2140    -1.3310    -2.8620 hc         1 W94       0.062200
     51 H23A        -3.4560    -1.2390    -1.2960 hc         1 W94       0.062200
     52 H24         -5.8060     0.1710    -1.9250 h1         1 W94       0.061700
     53 HN25        -4.8120     1.2340    -3.7470 hn         1 W94       0.403000
     54 H26         -2.6060     2.1620    -2.0060 h1         1 W94       0.067200
     55 H26A        -2.6200     2.1290    -3.7690 h1         1 W94       0.067200
     56 H29         -3.9170     0.0460     2.3950 h1         1 W94       0.069200
     57 H29A        -5.2180     1.2480     2.4150 h1         1 W94       0.069200
     58 H30         -5.5730    -1.0340     3.8360 h1         1 W94       0.081700
     59 H30A        -6.9300    -0.4430     2.8450 h1         1 W94       0.081700
     60 H32         -6.9910    -0.8320     0.1500 h2         1 W94       0.068700
     61 H32A        -5.5500    -1.6600    -0.6160 h2         1 W94       0.068700
@<TRIPOS>BOND
     1     1     2 2   
     2     1     5 1   
     3     1    16 1   
     4     2     3 1   
     5     2    34 1   
     6     3     4 2   
     7     3    12 1   
     8     4     5 1   
     9     5     6 1   
    10     6     7 ar  
    11     6    11 ar  
    12     7     8 ar  
    13     7    35 1   
    14     8     9 ar  
    15     8    36 1   
    16     9    10 ar  
    17     9    37 1   
    18    10    11 ar  
    19    10    38 1   
    20    11    39 1   
    21    12    13 1   
    22    12    14 1   
    23    12    15 1   
    24    16    17 1   
    25    16    21 1   
    26    16    40 1   
    27    17    18 1   
    28    17    41 1   
    29    17    42 1   
    30    18    19 1   
    31    18    43 1   
    32    18    44 1   
    33    19    20 1   
    34    19    22 1   
    35    20    21 1   
    36    20    45 1   
    37    20    46 1   
    38    21    47 1   
    39    21    48 1   
    40    22    23 1   
    41    22    26 1   
    42    22    49 1   
    43    23    24 1   
    44    23    50 1   
    45    23    51 1   
    46    24    25 1   
    47    24    27 1   
    48    24    52 1   
    49    25    26 1   
    50    25    53 1   
    51    26    54 1   
    52    26    55 1   
    53    27    28 1   
    54    27    33 2   
    55    28    29 1   
    56    28    32 1   
    57    29    30 1   
    58    29    56 1   
    59    29    57 1   
    60    30    31 1   
    61    30    58 1   
    62    30    59 1   
    63    31    32 1   
    64    32    60 1   
    65    32    61 1   
@<TRIPOS>SUBSTRUCTURE
     1 W94         1 TEMP              0 ****  ****    0 ROOT
