@<TRIPOS>MOLECULE
W95
   42    43     1     0     0
SMALL
No Charge or Current Charge


@<TRIPOS>ATOM
      1 C01          7.1010     7.2460    17.1350 cx         1 W95      -0.235700
      2 C02          6.2020     6.2810    16.3670 cx         1 W95      -0.176700
      3 C04          6.5730     7.9010    18.3960 c          1 W95       0.631100
      4 C05          5.3770     7.4690    20.4930 c6         1 W95       0.174300
      5 C07          6.2110     6.3020    14.8490 c          1 W95       0.727000
      6 C11          6.5010     7.7430    21.5320 c6         1 W95      -0.087400
      7 O12          5.9960     7.3660    14.2880 o          1 W95      -0.728000
      8 C13          3.2570     6.0220    19.9770 c3         1 W95      -0.062700
      9 O14          6.3830     5.2450    14.2610 o          1 W95      -0.728000
     10 C15          4.9130     7.1410    23.4280 c6         1 W95      -0.073400
     11 C16          5.9180     8.1940    22.8970 c6         1 W95      -0.062700
     12 C17          2.3540     7.2030    19.5380 c3         1 W95      -0.084600
     13 C18          2.3890     4.8180    20.4160 c3         1 W95      -0.084600
     14 C19          7.0420     8.4770    23.9280 c3         1 W95      -0.083100
     15 C03          7.4250     5.7640    17.1030 cx         1 W95      -0.096400
     16 O10          6.6430     9.1070    18.5840 o          1 W95      -0.532000
     17 O06          5.9460     7.0260    19.2440 os         1 W95      -0.455100
     18 C09          3.7900     6.8590    22.4010 c6         1 W95      -0.071400
     19 C08          4.3690     6.4010    21.0270 c6         1 W95      -0.057700
     20 H01          7.7440     7.8920    16.5430 hc         1 W95       0.123700
     21 H02          5.2360     6.0470    16.8050 hc         1 W95       0.067700
     22 H05          4.8280     8.4060    20.3160 h1         1 W95       0.066700
     23 H11          7.1050     6.8350    21.6650 hc         1 W95       0.051700
     24 H12          7.1810     8.5170    21.1540 hc         1 W95       0.051700
     25 H13          3.7730     5.6850    19.0690 hc         1 W95       0.083700
     26 H15          5.4400     6.2050    23.6630 hc         1 W95       0.033200
     27 H16          4.4670     7.4900    24.3700 hc         1 W95       0.033200
     28 H17          5.3860     9.1450    22.7530 hc         1 W95       0.045700
     29 H19          1.6470     6.8770    18.7650 hc         1 W95       0.029700
     30 H2A          1.7730     7.5950    20.3810 hc         1 W95       0.029700
     31 H18          2.9460     8.0220    19.1140 hc         1 W95       0.029700
     32 H2C          1.7570     4.4770    19.5870 hc         1 W95       0.029700
     33 H2D          3.0190     3.9760    20.7250 hc         1 W95       0.029700
     34 H2B          1.7300     5.0830    21.2510 hc         1 W95       0.029700
     35 H2E          6.6260     8.8290    24.8800 hc         1 W95       0.029033
     36 H2F          7.6320     7.5750    24.1340 hc         1 W95       0.029033
     37 H2G          7.7290     9.2490    23.5620 hc         1 W95       0.029033
     38 H04          7.2600     5.1720    18.0000 hc         1 W95       0.066200
     39 H03          8.2810     5.4490    16.5110 hc         1 W95       0.066200
     40 H1A          3.1230     6.0910    22.8140 hc         1 W95       0.039200
     41 H09          3.1820     7.7650    22.2750 hc         1 W95       0.039200
     42 H08          4.9380     5.4760    21.1990 hc         1 W95       0.054700
@<TRIPOS>BOND
     1     1     2 1   
     2     1     3 1   
     3     1    15 1   
     4     1    20 1   
     5     2     5 1   
     6     2    15 1   
     7     2    21 1   
     8     3    16 2   
     9     3    17 1   
    10     4     6 1   
    11     4    17 1   
    12     4    19 1   
    13     4    22 1   
    14     5     7 1   
    15     5     9 1   
    16     6    11 1   
    17     6    23 1   
    18     6    24 1   
    19     8    12 1   
    20     8    13 1   
    21     8    19 1   
    22     8    25 1   
    23    10    11 1   
    24    10    18 1   
    25    10    26 1   
    26    10    27 1   
    27    11    14 1   
    28    11    28 1   
    29    12    29 1   
    30    12    30 1   
    31    12    31 1   
    32    13    32 1   
    33    13    33 1   
    34    13    34 1   
    35    14    35 1   
    36    14    36 1   
    37    14    37 1   
    38    15    38 1   
    39    15    39 1   
    40    18    19 1   
    41    18    40 1   
    42    18    41 1   
    43    19    42 1   
@<TRIPOS>SUBSTRUCTURE
     1 W95         1 TEMP              0 ****  ****    0 ROOT
