@<TRIPOS>MOLECULE
W95
   42    43     1     0     0
SMALL
abcg2


@<TRIPOS>ATOM
      1 C01          6.7930     7.3790    17.0870 cx         1 W95      -0.235700
      2 C02          6.3200     5.9990    16.6300 cx         1 W95      -0.176700
      3 C04          6.2220     7.9860    18.3060 c          1 W95       0.631100
      4 C05          5.4050     7.5300    20.5300 c6         1 W95       0.174300
      5 C07          6.0760     5.7760    15.1470 c          1 W95       0.727000
      6 C11          6.4970     7.7390    21.5680 c6         1 W95      -0.087400
      7 O12          6.8820     6.2970    14.3360 o          1 W95      -0.728000
      8 C13          3.3340     6.1820    19.8570 c3         1 W95      -0.062700
      9 O14          5.0720     5.0730    14.8570 o          1 W95      -0.728000
     10 C15          4.8950     7.0500    23.3660 c6         1 W95      -0.073400
     11 C16          5.9150     8.1080    22.9360 c6         1 W95      -0.062700
     12 C17          2.3870     7.3570    19.6000 c3         1 W95      -0.084600
     13 C18          2.5430     4.9080    20.1650 c3         1 W95      -0.084600
     14 C19          7.0160     8.2960    23.9750 c3         1 W95      -0.083100
     15 C03          7.7050     6.1810    17.1570 cx         1 W95      -0.096400
     16 O10          5.9510     9.1700    18.3970 o          1 W95      -0.532000
     17 O06          6.0290     7.0980    19.2880 os         1 W95      -0.455100
     18 C09          3.8100     6.8470    22.3090 c6         1 W95      -0.071400
     19 C08          4.3970     6.4600    20.9440 c6         1 W95      -0.057700
     20 H01          6.9820     8.0940    16.3010 hc         1 W95       0.123700
     21 H02          5.6120     5.5170    17.2900 hc         1 W95       0.067700
     22 H05          4.8990     8.4750    20.3350 h1         1 W95       0.066700
     23 H11          7.0760     6.8130    21.6600 hc         1 W95       0.051700
     24 H12          7.1800     8.5190    21.2240 hc         1 W95       0.051700
     25 H13          3.8850     5.9990    18.9300 hc         1 W95       0.083700
     26 H15          5.4190     6.1030    23.5400 hc         1 W95       0.033200
     27 H16          4.4410     7.3410    24.3170 hc         1 W95       0.033200
     28 H17          5.3800     9.0600    22.8260 hc         1 W95       0.045700
     29 H19          1.7370     7.1330    18.7510 hc         1 W95       0.029700
     30 H2A          1.7460     7.5510    20.4630 hc         1 W95       0.029700
     31 H18          2.9270     8.2770    19.3680 hc         1 W95       0.029700
     32 H2C          1.8800     4.6600    19.3330 hc         1 W95       0.029700
     33 H2D          3.2120     4.0600    20.3290 hc         1 W95       0.029700
     34 H2B          1.9230     5.0260    21.0560 hc         1 W95       0.029700
     35 H2E          6.5960     8.5840    24.9420 hc         1 W95       0.029033
     36 H2F          7.5770     7.3680    24.1150 hc         1 W95       0.029033
     37 H2G          7.7210     9.0720    23.6680 hc         1 W95       0.029033
     38 H04          7.9310     5.7860    18.1370 hc         1 W95       0.066200
     39 H03          8.5100     6.1670    16.4350 hc         1 W95       0.066200
     40 H1A          3.1100     6.0770    22.6380 hc         1 W95       0.039200
     41 H09          3.2350     7.7720    22.2090 hc         1 W95       0.039200
     42 H08          4.9650     5.5310    21.0780 hc         1 W95       0.054700
@<TRIPOS>BOND
     1     1     2 1   
     2     1     3 1   
     3     1    15 1   
     4     1    20 1   
     5     2     5 1   
     6     2    15 1   
     7     2    21 1   
     8     3    16 2   
     9     3    17 1   
    10     4     6 1   
    11     4    17 1   
    12     4    19 1   
    13     4    22 1   
    14     5     7 1   
    15     5     9 1   
    16     6    11 1   
    17     6    23 1   
    18     6    24 1   
    19     8    12 1   
    20     8    13 1   
    21     8    19 1   
    22     8    25 1   
    23    10    11 1   
    24    10    18 1   
    25    10    26 1   
    26    10    27 1   
    27    11    14 1   
    28    11    28 1   
    29    12    29 1   
    30    12    30 1   
    31    12    31 1   
    32    13    32 1   
    33    13    33 1   
    34    13    34 1   
    35    14    35 1   
    36    14    36 1   
    37    14    37 1   
    38    15    38 1   
    39    15    39 1   
    40    18    19 1   
    41    18    40 1   
    42    18    41 1   
    43    19    42 1   
@<TRIPOS>SUBSTRUCTURE
     1 W95         1 TEMP              0 ****  ****    0 ROOT
