@<TRIPOS>MOLECULE
W96
   28    30     1     0     0
SMALL
abcg2


@<TRIPOS>ATOM
      1 C1         131.7440   140.2050   167.2640 ca         1 W96       0.364000
      2 C3         129.5880   141.3760   167.7090 ca         1 W96       0.264000
      3 C4         128.2320   141.2620   167.2840 ca         1 W96      -0.035000
      4 C5         127.8270   140.6260   166.0870 ca         1 W96      -0.105000
      5 C6         126.4980   140.5680   165.7490 ca         1 W96      -0.091000
      6 C7         125.5120   141.1360   166.5850 ca         1 W96      -0.106000
      7 C8         125.8740   141.7450   167.7580 ca         1 W96      -0.083000
      8 C9         127.2360   141.8180   168.1340 ca         1 W96      -0.080000
      9 C10        127.6450   142.4210   169.3470 ca         1 W96       0.340900
     10 C12        129.8550   142.0050   168.9060 ca         1 W96       0.288900
     11 C13        131.9630   139.6920   168.5510 ca         1 W96      -0.237000
     12 C14        133.1300   138.9920   168.8030 ca         1 W96       0.367400
     13 C16        133.8700   139.2500   166.6710 ca         1 W96       0.367400
     14 C17        132.7430   139.9600   166.3080 ca         1 W96      -0.237000
     15 N2         130.6110   140.8850   166.8890 nu         1 W96      -0.992000
     16 N11        128.9000   142.5090   169.7240 nb         1 W96      -0.642000
     17 N15        134.0920   138.7620   167.9000 nb         1 W96      -0.692000
     18 H1         128.5640   140.1690   165.4400 ha         1 W96       0.115000
     19 H2         126.1980   140.0740   164.8340 ha         1 W96       0.117000
     20 H3         124.4700   141.0790   166.2980 ha         1 W96       0.119000
     21 H4         125.1280   142.1770   168.4150 ha         1 W96       0.120000
     22 H5         126.8920   142.8420   170.0060 h4         1 W96       0.023100
     23 H6         130.8780   142.1270   169.2370 h4         1 W96       0.031100
     24 H7         131.2370   139.8170   169.3400 ha         1 W96       0.124500
     25 H8         133.2970   138.5900   169.7970 h4         1 W96       0.017600
     26 H9         134.6430   139.0640   165.9320 h4         1 W96       0.017600
     27 H10        132.6310   140.3250   165.2940 ha         1 W96       0.124500
     28 H11        130.5000   141.0340   165.8980 hn         1 W96       0.498000
@<TRIPOS>BOND
     1     1    11 ar  
     2     1    14 ar  
     3     1    15 1   
     4     2     3 ar  
     5     2    10 ar  
     6     2    15 1   
     7     3     4 ar  
     8     3     8 ar  
     9     4     5 ar  
    10     4    18 1   
    11     5     6 ar  
    12     5    19 1   
    13     6     7 ar  
    14     6    20 1   
    15     7     8 ar  
    16     7    21 1   
    17     8     9 ar  
    18     9    16 ar  
    19     9    22 1   
    20    10    16 ar  
    21    10    23 1   
    22    11    12 ar  
    23    11    24 1   
    24    12    17 ar  
    25    12    25 1   
    26    13    14 ar  
    27    13    17 ar  
    28    13    26 1   
    29    14    27 1   
    30    15    28 1   
@<TRIPOS>SUBSTRUCTURE
     1 W96         1 TEMP              0 ****  ****    0 ROOT
