@<TRIPOS>MOLECULE
W96
   28    30     1     0     0
SMALL
No Charge or Current Charge


@<TRIPOS>ATOM
      1 C1         131.7810   140.0590   167.3030 ca         1 W96       0.364000
      2 C3         129.5090   141.1930   167.7640 ca         1 W96       0.264000
      3 C4         128.1630   141.2120   167.3100 ca         1 W96      -0.035000
      4 C5         127.7540   140.5970   166.1020 ca         1 W96      -0.105000
      5 C6         126.4070   140.6420   165.7010 ca         1 W96      -0.091000
      6 C7         125.4540   141.2970   166.4980 ca         1 W96      -0.106000
      7 C8         125.8450   141.9070   167.7000 ca         1 W96      -0.083000
      8 C9         127.1920   141.8660   168.1090 ca         1 W96      -0.080000
      9 C10        127.5840   142.4750   169.3170 ca         1 W96       0.340900
     10 C12        129.7900   141.8530   168.9970 ca         1 W96       0.288900
     11 C13        132.0960   139.6090   168.5870 ca         1 W96      -0.237000
     12 C14        133.3700   139.0810   168.8240 ca         1 W96       0.367400
     13 C16        133.9930   139.4040   166.6200 ca         1 W96       0.367400
     14 C17        132.7410   139.9420   166.3000 ca         1 W96      -0.237000
     15 N2         130.5280   140.5810   166.9910 nu         1 W96      -0.992000
     16 N11        128.8600   142.4780   169.7640 nb         1 W96      -0.642000
     17 N15        134.3130   138.9790   167.8620 nb         1 W96      -0.692000
     18 H1         128.4640   140.0730   165.4680 ha         1 W96       0.115000
     19 H2         126.1020   140.1660   164.7720 ha         1 W96       0.117000
     20 H3         124.4130   141.3300   166.1840 ha         1 W96       0.119000
     21 H4         125.1000   142.4100   168.3140 ha         1 W96       0.120000
     22 H5         126.8550   142.9830   169.9480 h4         1 W96       0.023100
     23 H6         130.8090   141.9000   169.3760 h4         1 W96       0.031100
     24 H7         131.3710   139.6410   169.3930 ha         1 W96       0.124500
     25 H8         133.6450   138.7200   169.8150 h4         1 W96       0.017600
     26 H9         134.7670   139.3070   165.8590 h4         1 W96       0.017600
     27 H10        132.5360   140.2690   165.2860 ha         1 W96       0.124500
     28 H11        130.3160   140.5370   165.9940 hn         1 W96       0.498000
@<TRIPOS>BOND
     1     1    11 ar  
     2     1    14 ar  
     3     1    15 1   
     4     2     3 ar  
     5     2    10 ar  
     6     2    15 1   
     7     3     4 ar  
     8     3     8 ar  
     9     4     5 ar  
    10     4    18 1   
    11     5     6 ar  
    12     5    19 1   
    13     6     7 ar  
    14     6    20 1   
    15     7     8 ar  
    16     7    21 1   
    17     8     9 ar  
    18     9    16 ar  
    19     9    22 1   
    20    10    16 ar  
    21    10    23 1   
    22    11    12 ar  
    23    11    24 1   
    24    12    17 ar  
    25    12    25 1   
    26    13    14 ar  
    27    13    17 ar  
    28    13    26 1   
    29    14    27 1   
    30    15    28 1   
@<TRIPOS>SUBSTRUCTURE
     1 W96         1 TEMP              0 ****  ****    0 ROOT
