@<TRIPOS>MOLECULE
W97
   31    32     1     0     0
SMALL
bcc


@<TRIPOS>ATOM
      1 CAA         18.4610    -0.9380   -20.3450 c1         1 W97      -0.107500
      2 CAB         17.8810     0.0940   -20.5590 cg         1 W97      -0.232000
      3 CAC         17.1890     1.3150   -20.8160 ca         1 W97       0.414000
      4 CAE         17.1830     3.4020   -21.5460 ca         1 W97       0.296500
      5 CAF         15.8040     3.5300   -21.2500 ca         1 W97       0.475000
      6 CAH         15.8280     1.4260   -20.5170 ca         1 W97       0.304900
      7 CAJ         16.4320     5.3650   -22.0580 cc         1 W97       0.663100
      8 CAN         19.5250     6.0720   -21.7140 c3         1 W97      -0.088900
      9 CAO         18.9190     5.1960   -24.0520 c3         1 W97      -0.088900
     10 CAP         21.0210     6.2260   -21.9520 c3         1 W97      -0.090600
     11 CAQ         18.2890     4.0690   -24.8580 c3         1 W97      -0.090600
     12 NAD         17.8920     2.3310   -21.3470 nb         1 W97      -0.614000
     13 NAG         15.1210     2.5340   -20.7310 nb         1 W97      -0.590000
     14 NAI         17.5660     4.6100   -22.0670 na         1 W97      -0.263000
     15 NAK         15.3670     4.7730   -21.5830 nd         1 W97      -0.726700
     16 OAL         16.4850     6.5900   -22.5150 oh         1 W97      -0.556600
     17 HAA         18.9800    -1.8500   -20.1580 ha         1 W97       0.173500
     18 HAH         15.3040     0.5790   -20.0900 h4         1 W97       0.038100
     19 HAM         19.4870     4.0350   -22.3540 h1         1 W97       0.086700
     20 HAN1        19.0210     7.0160   -21.9280 hc         1 W97       0.054450
     21 HAN2        19.3520     5.8530   -20.6580 hc         1 W97       0.054450
     22 HA02        19.9610     5.3090   -24.3550 hc         1 W97       0.054450
     23 HA01        18.4330     6.1470   -24.2790 hc         1 W97       0.054450
     24 HAP3        21.4380     6.9700   -21.2730 hc         1 W97       0.038533
     25 HAP1        21.5490     5.2870   -21.7760 hc         1 W97       0.038533
     26 HAP2        21.2480     6.5520   -22.9670 hc         1 W97       0.038533
     27 HAQ2        18.4130     4.2490   -25.9260 hc         1 W97       0.038533
     28 HAQ3        18.7560     3.1100   -24.6280 hc         1 W97       0.038533
     29 HAQ1        17.2190     3.9720   -24.6700 hc         1 W97       0.038533
     30 HAL         15.6130     7.0060   -22.4470 ho         1 W97       0.476000
     31 CAM         18.9110     4.9450   -22.5450 c3         1 W97       0.073000
@<TRIPOS>BOND
     1     1     2 3   
     2     1    17 1   
     3     2     3 1   
     4     3     6 ar  
     5     3    12 ar  
     6     4     5 ar  
     7     4    12 ar  
     8     4    14 1   
     9     5    13 ar  
    10     5    15 1   
    11     6    13 ar  
    12     6    18 1   
    13     7    14 1   
    14     7    15 2   
    15     7    16 1   
    16     8    10 1   
    17     8    20 1   
    18     8    21 1   
    19     8    31 1   
    20     9    11 1   
    21     9    22 1   
    22     9    23 1   
    23     9    31 1   
    24    10    24 1   
    25    10    25 1   
    26    10    26 1   
    27    11    27 1   
    28    11    28 1   
    29    11    29 1   
    30    14    31 1   
    31    16    30 1   
    32    19    31 1   
@<TRIPOS>SUBSTRUCTURE
     1 W97         1 TEMP              0 ****  ****    0 ROOT
