@<TRIPOS>MOLECULE
W97
   31    32     1     0     0
SMALL
No Charge or Current Charge


@<TRIPOS>ATOM
      1 CAA         18.4800    -0.9840   -20.3220 c1         1 W97      -0.195000
      2 CAB         17.8820     0.0550   -20.5350 cg         1 W97      -0.232000
      3 CAC         17.1660     1.2770   -20.7830 ca         1 W97       0.414000
      4 CAE         17.1700     3.4260   -21.5460 ca         1 W97       0.296500
      5 CAF         15.8020     3.5620   -21.2420 ca         1 W97       0.475000
      6 CAH         15.7770     1.4100   -20.4720 ca         1 W97       0.304900
      7 CAJ         16.3950     5.4180   -22.0550 cc         1 W97       0.663100
      8 CAN         19.5570     6.0590   -21.7120 c3         1 W97      -0.088900
      9 CAO         18.9390     5.1980   -24.0820 c3         1 W97      -0.088900
     10 CAP         21.0740     6.2390   -21.9410 c3         1 W97      -0.090600
     11 CAQ         18.3370     4.0600   -24.9370 c3         1 W97      -0.090600
     12 NAD         17.8860     2.2940   -21.3290 nb         1 W97      -0.614000
     13 NAG         15.0770     2.5610   -20.6990 nb         1 W97      -0.590000
     14 NAI         17.5350     4.6300   -22.0680 na         1 W97      -0.292300
     15 NAK         15.3170     4.8240   -21.5650 nd         1 W97      -0.726700
     16 OAL         16.3810     6.6640   -22.5010 oh         1 W97      -0.595600
     17 HAA         19.0140    -1.8960   -20.1370 ha         1 W97       0.261000
     18 HAH         15.2220     0.5820   -20.0350 h4         1 W97       0.038100
     19 HAM         19.5120     4.0290   -22.3830 h1         1 W97       0.086700
     20 HAN1        19.0510     7.0110   -21.9110 hc         1 W97       0.054450
     21 HAN2        19.4010     5.8380   -20.6490 hc         1 W97       0.054450
     22 HA02        19.9770     5.3430   -24.4010 hc         1 W97       0.054450
     23 HA01        18.4110     6.1330   -24.3070 hc         1 W97       0.054450
     24 HAP3        21.4780     6.9750   -21.2360 hc         1 W97       0.038533
     25 HAP1        21.6060     5.2920   -21.7890 hc         1 W97       0.038533
     26 HAP2        21.2840     6.5980   -22.9550 hc         1 W97       0.038533
     27 HAQ2        18.4610     4.2800   -26.0040 hc         1 W97       0.038533
     28 HAQ3        18.8380     3.1090   -24.7230 hc         1 W97       0.038533
     29 HAQ1        17.2650     3.9400   -24.7390 hc         1 W97       0.038533
     30 HAL         15.4490     6.9190   -22.3520 ho         1 W97       0.515000
     31 CAM         18.9040     4.9280   -22.5520 c3         1 W97       0.102300
@<TRIPOS>BOND
     1     1     2 3   
     2     1    17 1   
     3     2     3 1   
     4     3     6 ar  
     5     3    12 ar  
     6     4     5 ar  
     7     4    12 ar  
     8     4    14 1   
     9     5    13 ar  
    10     5    15 1   
    11     6    13 ar  
    12     6    18 1   
    13     7    14 1   
    14     7    15 2   
    15     7    16 1   
    16     8    10 1   
    17     8    20 1   
    18     8    21 1   
    19     8    31 1   
    20     9    11 1   
    21     9    22 1   
    22     9    23 1   
    23     9    31 1   
    24    10    24 1   
    25    10    25 1   
    26    10    26 1   
    27    11    27 1   
    28    11    28 1   
    29    11    29 1   
    30    14    31 1   
    31    16    30 1   
    32    19    31 1   
@<TRIPOS>SUBSTRUCTURE
     1 W97         1 TEMP              0 ****  ****    0 ROOT
