@<TRIPOS>MOLECULE
W98
   27    28     1     0     0
SMALL
No Charge or Current Charge


@<TRIPOS>ATOM
      1 C7          27.6270    15.4480    43.5470 cx         1 W98      -0.111400
      2 C8          26.5530    15.1420    42.5300 cx         1 W98      -0.111400
      3 O1          29.3410    18.2790    43.4180 o          1 W98      -0.543500
      4 C1          27.2480    17.3370    40.3330 c3         1 W98       0.283100
      5 C5          29.3920    16.2700    37.1330 cc         1 W98      -0.235000
      6 C6          27.8700    15.7310    42.0840 cx         1 W98       0.100500
      7 C4          28.8280    15.1380    37.6620 cd         1 W98      -0.140000
      8 C3          28.0360    15.3850    38.8140 cd         1 W98      -0.112000
      9 C2          28.0000    16.7080    39.1840 cc         1 W98      -0.275300
     10 S           29.3170    18.0050    41.9770 s6         1 W98       1.229100
     11 O           29.3480    19.1320    41.0380 o          1 W98      -0.543500
     12 C           30.6580    16.9050    41.5450 c3         1 W98      -0.381100
     13 N           27.8700    17.1110    41.6570 n3         1 W98      -0.709500
     14 S1          28.9290    17.6960    38.0560 ss         1 W98       0.231000
     15 H1          27.4620    16.2900    44.2140 hc         1 W98       0.085700
     16 H2          28.1600    14.6110    43.9910 hc         1 W98       0.085700
     17 H3          25.6740    15.7810    42.5180 hc         1 W98       0.085700
     18 H4          26.3630    14.0990    42.2880 hc         1 W98       0.085700
     19 H5          27.1250    18.4120    40.1390 h1         1 W98       0.083700
     20 H6          26.2300    16.9230    40.3300 h1         1 W98       0.083700
     21 H7          30.0340    16.3780    36.2680 h4         1 W98       0.154000
     22 H8          28.5550    15.0680    41.5530 h1         1 W98       0.076700
     23 H9          28.9720    14.1470    37.2400 ha         1 W98       0.137000
     24 H10         27.5110    14.6000    39.3510 ha         1 W98       0.135000
     25 H11         30.6330    16.0570    42.2350 h1         1 W98       0.101700
     26 H12         30.5040    16.5850    40.5100 h1         1 W98       0.101700
     27 H13         31.5890    17.4700    41.6510 h1         1 W98       0.101700
@<TRIPOS>BOND
     1     1     2 1   
     2     1     6 1   
     3     1    15 1   
     4     1    16 1   
     5     2     6 1   
     6     2    17 1   
     7     2    18 1   
     8     3    10 2   
     9     4     9 1   
    10     4    13 1   
    11     4    19 1   
    12     4    20 1   
    13     5     7 2   
    14     5    14 1   
    15     5    21 1   
    16     6    13 1   
    17     6    22 1   
    18     7     8 1   
    19     7    23 1   
    20     8     9 2   
    21     8    24 1   
    22     9    14 1   
    23    10    11 2   
    24    10    12 1   
    25    10    13 1   
    26    12    25 1   
    27    12    26 1   
    28    12    27 1   
@<TRIPOS>SUBSTRUCTURE
     1 W98         1 TEMP              0 ****  ****    0 ROOT
