@<TRIPOS>MOLECULE
W98
   27    28     1     0     0
SMALL
abcg2


@<TRIPOS>ATOM
      1 C7          27.6090    15.4660    43.5830 cx         1 W98      -0.111400
      2 C8          26.5250    15.1960    42.5790 cx         1 W98      -0.111400
      3 O1          29.3440    18.0370    43.4490 o          1 W98      -0.543500
      4 C1          27.2870    17.2880    40.3030 c3         1 W98       0.283100
      5 C5          29.4440    16.2260    37.1620 cc         1 W98      -0.235000
      6 C6          27.8630    15.7070    42.1240 cx         1 W98       0.100500
      7 C4          28.8110    15.1020    37.6140 cd         1 W98      -0.140000
      8 C3          27.9820    15.3570    38.7410 cd         1 W98      -0.112000
      9 C2          27.9970    16.6670    39.1390 cc         1 W98      -0.275300
     10 S           29.2650    17.9440    42.0090 s6         1 W98       1.229100
     11 O           29.1910    19.1720    41.2470 o          1 W98      -0.543500
     12 C           30.6820    17.0210    41.4660 c3         1 W98      -0.381100
     13 N           27.9210    17.0620    41.6230 n3         1 W98      -0.709500
     14 S1          29.0350    17.5990    38.1120 ss         1 W98       0.231000
     15 H1          27.5010    16.3380    44.2100 hc         1 W98       0.085700
     16 H2          28.1210    14.6290    44.0390 hc         1 W98       0.085700
     17 H3          25.6970    15.8920    42.5450 hc         1 W98       0.085700
     18 H4          26.2790    14.1730    42.3320 hc         1 W98       0.085700
     19 H5          27.1730    18.3590    40.1650 h1         1 W98       0.083700
     20 H6          26.2900    16.8580    40.3890 h1         1 W98       0.083700
     21 H7          30.1170    16.3260    36.3260 h4         1 W98       0.154000
     22 H8          28.5000    14.9970    41.6080 h1         1 W98       0.076700
     23 H9          28.9270    14.1290    37.1560 ha         1 W98       0.137000
     24 H10         27.3900    14.6010    39.2390 ha         1 W98       0.135000
     25 H11         30.7030    16.0690    41.9920 h1         1 W98       0.101700
     26 H12         30.6180    16.8760    40.3900 h1         1 W98       0.101700
     27 H13         31.5580    17.6150    41.7240 h1         1 W98       0.101700
@<TRIPOS>BOND
     1     1     2 1   
     2     1     6 1   
     3     1    15 1   
     4     1    16 1   
     5     2     6 1   
     6     2    17 1   
     7     2    18 1   
     8     3    10 2   
     9     4     9 1   
    10     4    13 1   
    11     4    19 1   
    12     4    20 1   
    13     5     7 2   
    14     5    14 1   
    15     5    21 1   
    16     6    13 1   
    17     6    22 1   
    18     7     8 1   
    19     7    23 1   
    20     8     9 2   
    21     8    24 1   
    22     9    14 1   
    23    10    11 2   
    24    10    12 1   
    25    10    13 1   
    26    12    25 1   
    27    12    26 1   
    28    12    27 1   
@<TRIPOS>SUBSTRUCTURE
     1 W98         1 TEMP              0 ****  ****    0 ROOT
