@<TRIPOS>MOLECULE
W99
   46    49     1     0     0
SMALL
No Charge or Current Charge


@<TRIPOS>ATOM
      1 N          140.4640   124.6240   160.2740 nu         1 W99      -0.928900
      2 C          145.9730   125.9370   161.9060 c5         1 W99       0.371600
      3 O          145.0360   126.0390   163.0370 os         1 W99      -0.342100
      4 C1         143.8450   125.7300   162.4650 ca         1 W99       0.022100
      5 C10        140.5360   126.6670   155.7800 c          1 W99       0.530600
      6 C11        141.8370   128.4110   157.1630 c6         1 W99       0.103500
      7 C12        143.3460   128.6950   157.4340 c6         1 W99      -0.071200
      8 C13        144.1880   128.7490   156.1280 c6         1 W99      -0.070400
      9 C14        143.3290   129.2480   154.9450 c6         1 W99      -0.071200
     10 C15        142.1750   128.2370   154.6860 c6         1 W99       0.103500
     11 C16        144.1780   129.4800   153.6670 c3         1 W99      -0.086100
     12 C17        143.9540   127.6970   158.4520 c3         1 W99      -0.086100
     13 C2         142.5970   125.7500   163.0990 ca         1 W99      -0.063000
     14 C3         141.4650   125.3780   162.3410 ca         1 W99      -0.176000
     15 C4         141.5980   125.0040   160.9840 ca         1 W99       0.310000
     16 C5         142.8740   124.9760   160.3860 ca         1 W99      -0.120000
     17 C6         143.9780   125.3520   161.1590 ca         1 W99       0.078100
     18 C7         140.0470   124.8750   159.0020 cc         1 W99       0.713300
     19 C8         140.1040   125.8410   156.9910 cd         1 W99       0.276500
     20 C9         138.9790   125.0420   156.8620 cc         1 W99      -0.227000
     21 N1         140.7210   125.7080   158.2450 nd         1 W99      -0.704000
     22 N2         141.5810   127.6270   155.9170 n          1 W99      -0.383800
     23 O1         140.0210   126.5030   154.6740 o          1 W99      -0.601100
     24 O2         145.2700   125.3720   160.7430 os         1 W99      -0.341100
     25 S          138.6110   124.1730   158.3230 ss         1 W99      -0.092400
     26 H1         139.7060   124.2570   160.8420 hn         1 W99       0.506000
     27 H2         146.8180   125.2950   162.1780 h2         1 W99       0.064700
     28 H3         141.3420   129.3830   157.0230 h1         1 W99       0.051700
     29 H4         141.3640   127.9900   158.0540 h1         1 W99       0.051700
     30 H5         143.4050   129.6800   157.9190 hc         1 W99       0.047200
     31 H6         144.5830   127.7510   155.8890 hc         1 W99       0.045700
     32 H7         145.0600   129.4010   156.2770 hc         1 W99       0.045700
     33 H8         142.8960   130.2230   155.2110 hc         1 W99       0.047200
     34 H9         141.3850   128.7340   154.1040 h1         1 W99       0.051700
     35 H10        142.5620   127.4160   154.0660 h1         1 W99       0.051700
     36 H11        144.9630   130.2260   153.8440 hc         1 W99       0.038200
     37 H12        144.6660   128.5550   153.3370 hc         1 W99       0.038200
     38 H13        143.5560   129.8450   152.8410 hc         1 W99       0.038200
     39 H14        143.4080   127.7240   159.4030 hc         1 W99       0.038200
     40 H15        143.9150   126.6700   158.0710 hc         1 W99       0.038200
     41 H16        145.0020   127.9360   158.6660 hc         1 W99       0.038200
     42 H17        142.5070   126.0420   164.1430 ha         1 W99       0.135000
     43 H18        140.4840   125.3860   162.8080 ha         1 W99       0.116000
     44 H19        143.0010   124.6660   159.3550 ha         1 W99       0.172000
     45 H20        138.3340   124.9330   156.0000 h4         1 W99       0.176000
     46 H21        146.3300   126.9420   161.6500 h2         1 W99       0.064700
@<TRIPOS>BOND
     1     1    15 1   
     2     1    18 1   
     3     1    26 1   
     4     2     3 1   
     5     2    24 1   
     6     2    27 1   
     7     2    46 1   
     8     3     4 1   
     9     4    13 ar  
    10     4    17 ar  
    11     5    19 1   
    12     5    22 1   
    13     5    23 2   
    14     6     7 1   
    15     6    22 1   
    16     6    28 1   
    17     6    29 1   
    18     7     8 1   
    19     7    12 1   
    20     7    30 1   
    21     8     9 1   
    22     8    31 1   
    23     8    32 1   
    24     9    10 1   
    25     9    11 1   
    26     9    33 1   
    27    10    22 1   
    28    10    34 1   
    29    10    35 1   
    30    11    36 1   
    31    11    37 1   
    32    11    38 1   
    33    12    39 1   
    34    12    40 1   
    35    12    41 1   
    36    13    14 ar  
    37    13    42 1   
    38    14    15 ar  
    39    14    43 1   
    40    15    16 ar  
    41    16    17 ar  
    42    16    44 1   
    43    17    24 1   
    44    18    21 2   
    45    18    25 1   
    46    19    20 2   
    47    19    21 1   
    48    20    25 1   
    49    20    45 1   
@<TRIPOS>SUBSTRUCTURE
     1 W99         1 TEMP              0 ****  ****    0 ROOT
