@<TRIPOS>MOLECULE
W99
   46    49     1     0     0
SMALL
bcc


@<TRIPOS>ATOM
      1 N          140.3750   124.9390   160.4170 nu         1 W99      -0.735300
      2 C          145.9270   125.8110   162.0890 c5         1 W99       0.325200
      3 O          145.1060   125.3970   163.1710 os         1 W99      -0.318900
      4 C1         143.8540   125.2810   162.6550 ca         1 W99       0.022100
      5 C10        141.0180   126.3710   155.8100 c          1 W99       0.597600
      6 C11        141.7900   128.4450   156.9570 c6         1 W99       0.103500
      7 C12        143.2210   128.8700   157.3070 c6         1 W99      -0.071200
      8 C13        144.0600   129.0490   156.0290 c6         1 W99      -0.070400
      9 C14        143.1900   129.2070   154.7910 c6         1 W99      -0.071200
     10 C15        142.3620   127.9390   154.6050 c6         1 W99       0.103500
     11 C16        144.0100   129.4740   153.5380 c3         1 W99      -0.086100
     12 C17        143.8980   127.8980   158.2620 c3         1 W99      -0.086100
     13 C2         142.6600   125.0750   163.2990 ca         1 W99      -0.081000
     14 C3         141.5150   124.9740   162.5060 ca         1 W99      -0.194000
     15 C4         141.5770   125.0710   161.1160 ca         1 W99       0.171600
     16 C5         142.8080   125.2660   160.4700 ca         1 W99      -0.138000
     17 C6         143.9130   125.3700   161.2770 ca         1 W99       0.078100
     18 C7         140.1060   125.2400   159.1250 cc         1 W99       0.713300
     19 C8         140.3100   125.8900   157.0360 cd         1 W99       0.341800
     20 C9         139.0080   125.5240   156.9780 cc         1 W99      -0.165400
     21 N1         140.9290   125.7260   158.2480 nd         1 W99      -0.704000
     22 N2         141.7730   127.4830   155.8650 n          1 W99      -0.450800
     23 O1         140.8610   125.7430   154.7690 o          1 W99      -0.601100
     24 O2         145.2010   125.5480   160.8940 os         1 W99      -0.317900
     25 S          138.4920   124.9550   158.5170 ss         1 W99      -0.237300
     26 H1         139.5910   124.6400   160.9750 hn         1 W99       0.450800
     27 H2         146.8560   125.2410   162.0890 h2         1 W99       0.064700
     28 H3         141.2060   129.3210   156.6580 h1         1 W99       0.051700
     29 H4         141.2970   128.0280   157.8300 h1         1 W99       0.051700
     30 H5         143.1320   129.8390   157.8070 hc         1 W99       0.047200
     31 H6         144.7030   128.1730   155.8820 hc         1 W99       0.045700
     32 H7         144.7330   129.9030   156.1380 hc         1 W99       0.045700
     33 H8         142.5150   130.0580   154.9370 hc         1 W99       0.047200
     34 H9         141.5780   128.1060   153.8600 h1         1 W99       0.051700
     35 H10        143.0110   127.1490   154.2130 h1         1 W99       0.051700
     36 H11        144.5580   130.4130   153.6260 hc         1 W99       0.038200
     37 H12        144.7380   128.6770   153.3690 hc         1 W99       0.038200
     38 H13        143.3770   129.5420   152.6520 hc         1 W99       0.038200
     39 H14        143.3710   127.8320   159.2150 hc         1 W99       0.038200
     40 H15        143.9370   126.8950   157.8300 hc         1 W99       0.038200
     41 H16        144.9240   128.2080   158.4670 hc         1 W99       0.038200
     42 H17        142.5940   124.9950   164.3760 ha         1 W99       0.153000
     43 H18        140.5580   124.8200   162.9890 ha         1 W99       0.134000
     44 H19        142.8830   125.3380   159.3970 ha         1 W99       0.190000
     45 H20        138.3330   125.5610   156.1380 h4         1 W99       0.194000
     46 H21        146.1340   126.8850   162.1660 h2         1 W99       0.064700
@<TRIPOS>BOND
     1     1    15 1   
     2     1    18 1   
     3     1    26 1   
     4     2     3 1   
     5     2    24 1   
     6     2    27 1   
     7     2    46 1   
     8     3     4 1   
     9     4    13 ar  
    10     4    17 ar  
    11     5    19 1   
    12     5    22 1   
    13     5    23 2   
    14     6     7 1   
    15     6    22 1   
    16     6    28 1   
    17     6    29 1   
    18     7     8 1   
    19     7    12 1   
    20     7    30 1   
    21     8     9 1   
    22     8    31 1   
    23     8    32 1   
    24     9    10 1   
    25     9    11 1   
    26     9    33 1   
    27    10    22 1   
    28    10    34 1   
    29    10    35 1   
    30    11    36 1   
    31    11    37 1   
    32    11    38 1   
    33    12    39 1   
    34    12    40 1   
    35    12    41 1   
    36    13    14 ar  
    37    13    42 1   
    38    14    15 ar  
    39    14    43 1   
    40    15    16 ar  
    41    16    17 ar  
    42    16    44 1   
    43    17    24 1   
    44    18    21 2   
    45    18    25 1   
    46    19    20 2   
    47    19    21 1   
    48    20    25 1   
    49    20    45 1   
@<TRIPOS>SUBSTRUCTURE
     1 W99         1 TEMP              0 ****  ****    0 ROOT
