@<TRIPOS>MOLECULE
W9A
   49    49     1     0     0
SMALL
No Charge or Current Charge


@<TRIPOS>ATOM
      1 C1         -37.3180   131.8860     8.3800 c3         1 W9A      -0.070400
      2 C2         -36.5750   132.8730     9.3220 c3         1 W9A       0.231600
      3 C4         -37.5750   133.9670    11.3910 ca         1 W9A      -0.119000
      4 C6         -39.2800   135.6950    11.2310 ca         1 W9A       0.137000
      5 C7         -39.2470   135.6150     9.8230 ca         1 W9A       0.108100
      6 C8         -40.1270   136.4160     7.6530 c3         1 W9A       0.165600
      7 C9         -41.1840   137.4460     7.1670 c3         1 W9A      -0.051700
      8 C10        -42.6180   137.1480     7.7040 c3         1 W9A      -0.073900
      9 C11        -43.1550   135.7330     7.3760 c3         1 W9A      -0.075400
     10 C12        -44.6160   135.5290     7.8200 c3         1 W9A      -0.089100
     11 C14        -41.5570   140.0190     6.8150 c3         1 W9A      -0.075400
     12 F          -40.1160   136.5640    11.8470 f          1 W9A      -0.169000
     13 C5         -38.4480   134.8770    12.0110 ca         1 W9A      -0.120000
     14 O1         -40.0830   136.4400     9.0920 os         1 W9A      -0.331100
     15 C13        -40.7150   138.9000     7.4760 c3         1 W9A      -0.073900
     16 C15        -40.9690   141.4240     7.0430 c3         1 W9A      -0.089100
     17 C16        -38.3650   134.6980     9.2050 ca         1 W9A      -0.167000
     18 C3         -37.5280   133.8690     9.9850 ca         1 W9A      -0.112300
     19 O          -35.5830   133.6080     8.5970 oh         1 W9A      -0.642000
     20 C          -36.6360   130.5100     8.1860 c3         1 W9A       0.156800
     21 N          -35.3700   130.5720     7.4320 n8         1 W9A      -0.983200
     22 H1         -37.5020   132.3560     7.4070 hc         1 W9A       0.050200
     23 H2         -38.3060   131.6890     8.8130 hc         1 W9A       0.050200
     24 H3         -36.0930   132.2840    10.1150 h1         1 W9A       0.037700
     25 H4         -36.9360   133.3370    12.0060 ha         1 W9A       0.118000
     26 H5         -40.3900   135.4150     7.2900 h1         1 W9A       0.036700
     27 H6         -39.1460   136.6770     7.2340 h1         1 W9A       0.036700
     28 H7         -41.2230   137.3500     6.0740 hc         1 W9A       0.050700
     29 H8         -42.6400   137.2970     8.7910 hc         1 W9A       0.047450
     30 H9         -43.3190   137.8740     7.2770 hc         1 W9A       0.047450
     31 H10        -43.0820   135.5560     6.2960 hc         1 W9A       0.035950
     32 H11        -42.5360   134.9750     7.8710 hc         1 W9A       0.035950
     33 H12        -44.9520   134.5140     7.5740 hc         1 W9A       0.032200
     34 H13        -44.7160   135.6690     8.9030 hc         1 W9A       0.032200
     35 H14        -45.2800   136.2410     7.3150 hc         1 W9A       0.032200
     36 H15        -42.5780   140.0050     7.2130 hc         1 W9A       0.035950
     37 H16        -41.6280   139.8330     5.7360 hc         1 W9A       0.035950
     38 H17        -38.4830   134.9480    13.0950 ha         1 W9A       0.132000
     39 H18        -39.6770   139.0100     7.1390 hc         1 W9A       0.047450
     40 H19        -40.7060   139.0560     8.5620 hc         1 W9A       0.047450
     41 H20        -41.5980   142.1840     6.5640 hc         1 W9A       0.032200
     42 H21        -40.9130   141.6520     8.1150 hc         1 W9A       0.032200
     43 H22        -39.9600   141.4980     6.6200 hc         1 W9A       0.032200
     44 H23        -38.3140   134.6200     8.1230 ha         1 W9A       0.132000
     45 H24        -35.2340   134.2810     9.2190 ho         1 W9A       0.443000
     46 H25        -37.3240   129.8540     7.6330 h1         1 W9A       0.024200
     47 H26        -36.4430   130.0480     9.1640 h1         1 W9A       0.024200
     48 H27        -35.0630   129.6170     7.2110 hn         1 W9A       0.391000
     49 H28        -35.5490   130.9900     6.5120 hn         1 W9A       0.391000
@<TRIPOS>BOND
     1     1     2 1   
     2     1    20 1   
     3     1    22 1   
     4     1    23 1   
     5     2    18 1   
     6     2    19 1   
     7     2    24 1   
     8     3    13 ar  
     9     3    18 ar  
    10     3    25 1   
    11     4     5 ar  
    12     4    12 1   
    13     4    13 ar  
    14     5    14 1   
    15     5    17 ar  
    16     6     7 1   
    17     6    14 1   
    18     6    26 1   
    19     6    27 1   
    20     7     8 1   
    21     7    15 1   
    22     7    28 1   
    23     8     9 1   
    24     8    29 1   
    25     8    30 1   
    26     9    10 1   
    27     9    31 1   
    28     9    32 1   
    29    10    33 1   
    30    10    34 1   
    31    10    35 1   
    32    11    15 1   
    33    11    16 1   
    34    11    36 1   
    35    11    37 1   
    36    13    38 1   
    37    15    39 1   
    38    15    40 1   
    39    16    41 1   
    40    16    42 1   
    41    16    43 1   
    42    17    18 ar  
    43    17    44 1   
    44    19    45 1   
    45    20    21 1   
    46    20    46 1   
    47    20    47 1   
    48    21    48 1   
    49    21    49 1   
@<TRIPOS>SUBSTRUCTURE
     1 W9A         1 TEMP              0 ****  ****    0 ROOT
