@<TRIPOS>MOLECULE
W9A
   49    49     1     0     0
SMALL
bcc


@<TRIPOS>ATOM
      1 C1         -37.2920   131.6870     8.8060 c3         1 W9A      -0.070400
      2 C2         -36.5700   132.9860     9.1590 c3         1 W9A       0.208400
      3 C4         -37.6060   133.9780    11.2300 ca         1 W9A      -0.137000
      4 C6         -39.3410   135.6080    11.0930 ca         1 W9A       0.101900
      5 C7         -39.2860   135.5980     9.6970 ca         1 W9A       0.108100
      6 C8         -40.1340   136.4570     7.6470 c3         1 W9A       0.142400
      7 C9         -41.1560   137.4840     7.1890 c3         1 W9A      -0.051700
      8 C10        -42.5810   137.1570     7.6460 c3         1 W9A      -0.073900
      9 C11        -43.1010   135.7850     7.2350 c3         1 W9A      -0.075400
     10 C12        -44.5600   135.5890     7.6280 c3         1 W9A      -0.089100
     11 C14        -41.4810   140.0190     6.8960 c3         1 W9A      -0.075400
     12 F          -40.2270   136.4290    11.6810 f          1 W9A      -0.133900
     13 C5         -38.5200   134.8170    11.8590 ca         1 W9A      -0.138000
     14 O1         -40.1330   136.4230     9.0660 os         1 W9A      -0.307900
     15 C13        -40.7300   138.8970     7.6030 c3         1 W9A      -0.073900
     16 C15        -40.9760   141.3950     7.3050 c3         1 W9A      -0.089100
     17 C16        -38.3690   134.7530     9.0850 ca         1 W9A      -0.185000
     18 C3         -37.5290   133.9380     9.8460 ca         1 W9A      -0.112300
     19 O          -36.0320   133.5520     7.9870 oh         1 W9A      -0.579800
     20 C          -36.4150   130.4730     8.5220 c3         1 W9A       0.156800
     21 N          -35.5840   130.6150     7.3370 n8         1 W9A      -0.872800
     22 H1         -37.9710   131.8730     7.9660 hc         1 W9A       0.050200
     23 H2         -37.9310   131.4230     9.6520 hc         1 W9A       0.050200
     24 H3         -35.7720   132.7440     9.8770 h1         1 W9A       0.037700
     25 H4         -36.9510   133.3580    11.8300 ha         1 W9A       0.136000
     26 H5         -40.3650   135.4630     7.2470 h1         1 W9A       0.036700
     27 H6         -39.1410   136.7350     7.2750 h1         1 W9A       0.036700
     28 H7         -41.1310   137.4320     6.0920 hc         1 W9A       0.050700
     29 H8         -42.6500   137.2610     8.7340 hc         1 W9A       0.047450
     30 H9         -43.2580   137.9110     7.2350 hc         1 W9A       0.047450
     31 H10        -42.9910   135.6620     6.1530 hc         1 W9A       0.035950
     32 H11        -42.5030   134.9930     7.6930 hc         1 W9A       0.035950
     33 H12        -44.9250   134.6020     7.3410 hc         1 W9A       0.032200
     34 H13        -44.6910   135.6890     8.7070 hc         1 W9A       0.032200
     35 H14        -45.2020   136.3310     7.1490 hc         1 W9A       0.032200
     36 H15        -42.5510   139.9520     7.1080 hc         1 W9A       0.035950
     37 H16        -41.3780   139.8960     5.8130 hc         1 W9A       0.035950
     38 H17        -38.5870   134.8610    12.9380 ha         1 W9A       0.150000
     39 H18        -39.6610   139.0180     7.3960 hc         1 W9A       0.047450
     40 H19        -40.8450   139.0130     8.6850 hc         1 W9A       0.047450
     41 H20        -41.5180   142.1900     6.7920 hc         1 W9A       0.032200
     42 H21        -41.0940   141.5540     8.3790 hc         1 W9A       0.032200
     43 H22        -39.9160   141.5130     7.0710 hc         1 W9A       0.032200
     44 H23        -38.2940   134.7220     8.0060 ha         1 W9A       0.150000
     45 H24        -35.5610   134.3550     8.2300 ho         1 W9A       0.404000
     46 H25        -37.0830   129.6010     8.4770 h1         1 W9A       0.024200
     47 H26        -35.7610   130.3060     9.3830 h1         1 W9A       0.024200
     48 H27        -35.1250   129.7320     7.1480 hn         1 W9A       0.335800
     49 H28        -36.1750   130.7920     6.5340 hn         1 W9A       0.335800
@<TRIPOS>BOND
     1     1     2 1   
     2     1    20 1   
     3     1    22 1   
     4     1    23 1   
     5     2    18 1   
     6     2    19 1   
     7     2    24 1   
     8     3    13 ar  
     9     3    18 ar  
    10     3    25 1   
    11     4     5 ar  
    12     4    12 1   
    13     4    13 ar  
    14     5    14 1   
    15     5    17 ar  
    16     6     7 1   
    17     6    14 1   
    18     6    26 1   
    19     6    27 1   
    20     7     8 1   
    21     7    15 1   
    22     7    28 1   
    23     8     9 1   
    24     8    29 1   
    25     8    30 1   
    26     9    10 1   
    27     9    31 1   
    28     9    32 1   
    29    10    33 1   
    30    10    34 1   
    31    10    35 1   
    32    11    15 1   
    33    11    16 1   
    34    11    36 1   
    35    11    37 1   
    36    13    38 1   
    37    15    39 1   
    38    15    40 1   
    39    16    41 1   
    40    16    42 1   
    41    16    43 1   
    42    17    18 ar  
    43    17    44 1   
    44    19    45 1   
    45    20    21 1   
    46    20    46 1   
    47    20    47 1   
    48    21    48 1   
    49    21    49 1   
@<TRIPOS>SUBSTRUCTURE
     1 W9A         1 TEMP              0 ****  ****    0 ROOT
