@<TRIPOS>MOLECULE
W9B
   46    46     1     0     0
SMALL
No Charge or Current Charge


@<TRIPOS>ATOM
      1 C10          5.4520     7.5680    21.7980 c3         1 W9B       0.008300
      2 C11          2.2130     4.8870    18.8370 c3         1 W9B       0.010300
      3 O12          6.9720     4.4680    15.7560 o          1 W9B      -0.683000
      4 C19          6.7810     6.9840    22.3640 c3         1 W9B      -0.085767
      5 C20          5.5380     9.1200    21.7060 c3         1 W9B      -0.085767
      6 C21          4.3620     7.2630    22.8720 c3         1 W9B      -0.085767
      7 C22          1.0450     5.8520    19.1790 c3         1 W9B      -0.081100
      8 C23          1.9490     4.3140    17.4150 c3         1 W9B      -0.081100
      9 C24          2.2060     3.6930    19.8320 c3         1 W9B      -0.081100
     10 C1           6.6110     6.6300    16.7320 c3         1 W9B       0.028300
     11 C2           5.6810     6.4970    17.9970 ca         1 W9B      -0.090300
     12 C3           6.4300     8.0420    16.0540 c3         1 W9B       0.289000
     13 C4           5.9920     7.0810    19.2640 ca         1 W9B       0.164100
     14 C5           5.1240     6.9440    20.3890 ca         1 W9B      -0.187300
     15 C6           4.4510     5.8070    17.8740 ca         1 W9B      -0.038000
     16 C7           3.5650     5.6510    18.9590 ca         1 W9B      -0.128300
     17 C8           6.3040     5.4930    15.6660 c          1 W9B       0.705000
     18 C9           3.9230     6.2170    20.1970 ca         1 W9B      -0.077000
     19 O13          8.0100     6.4410    17.1190 oh         1 W9B      -0.671000
     20 F14          6.8800     9.0480    16.8400 f          1 W9B      -0.128000
     21 F15          5.1280     8.3070    15.7900 f          1 W9B      -0.128000
     22 F16          7.1130     8.1230    14.8860 f          1 W9B      -0.128000
     23 O18          5.4780     5.6670    14.7790 o          1 W9B      -0.683000
     24 H30          6.9450     7.3150    23.3980 hc         1 W9B       0.032256
     25 H31          6.7470     5.8870    22.3670 hc         1 W9B       0.032256
     26 H32          7.6640     7.2910    21.7970 hc         1 W9B       0.032256
     27 H33          5.6400     9.5660    22.7030 hc         1 W9B       0.032256
     28 H35          6.3930     9.4710    21.1200 hc         1 W9B       0.032256
     29 H34          4.6280     9.5280    21.2500 hc         1 W9B       0.032256
     30 H36          4.6270     7.7050    23.8410 hc         1 W9B       0.032256
     31 H37          3.3900     7.6830    22.5840 hc         1 W9B       0.032256
     32 H38          4.2500     6.1840    23.0310 hc         1 W9B       0.032256
     33 H39          0.0760     5.3510    19.0630 hc         1 W9B       0.031256
     34 H41          1.1040     6.2150    20.2110 hc         1 W9B       0.031256
     35 H40          1.0570     6.7230    18.5130 hc         1 W9B       0.031256
     36 H43          0.9910     3.7810    17.3800 hc         1 W9B       0.031256
     37 H44          1.9050     5.1140    16.6660 hc         1 W9B       0.031256
     38 H42          2.7310     3.6010    17.1230 hc         1 W9B       0.031256
     39 H47          1.2810     3.1110    19.7390 hc         1 W9B       0.031256
     40 H45          3.0500     3.0210    19.6340 hc         1 W9B       0.031256
     41 H46          2.2780     4.0280    20.8730 hc         1 W9B       0.031256
     42 H25          4.1710     5.3940    16.9150 ha         1 W9B       0.161000
     43 H26          3.2260     6.0820    21.0130 ha         1 W9B       0.093000
     44 H27          8.2020     5.5010    16.8790 ho         1 W9B       0.485000
     45 H28          7.1630     8.1000    20.3410 ho         1 W9B       0.445000
     46 O17          7.1360     7.8040    19.4130 oh         1 W9B      -0.513100
@<TRIPOS>BOND
     1     1     4 1   
     2     1     5 1   
     3     1     6 1   
     4     1    14 1   
     5     2     7 1   
     6     2     8 1   
     7     2     9 1   
     8     2    16 1   
     9     3    17 1   
    10     4    24 1   
    11     4    25 1   
    12     4    26 1   
    13     5    27 1   
    14     5    28 1   
    15     5    29 1   
    16     6    30 1   
    17     6    31 1   
    18     6    32 1   
    19     7    33 1   
    20     7    34 1   
    21     7    35 1   
    22     8    36 1   
    23     8    37 1   
    24     8    38 1   
    25     9    39 1   
    26     9    40 1   
    27     9    41 1   
    28    10    11 1   
    29    10    12 1   
    30    10    17 1   
    31    10    19 1   
    32    11    13 ar  
    33    11    15 ar  
    34    12    20 1   
    35    12    21 1   
    36    12    22 1   
    37    13    14 ar  
    38    13    46 1   
    39    14    18 ar  
    40    15    16 ar  
    41    15    42 1   
    42    16    18 ar  
    43    17    23 1   
    44    18    43 1   
    45    19    44 1   
    46    45    46 1   
@<TRIPOS>SUBSTRUCTURE
     1 W9B         1 TEMP              0 ****  ****    0 ROOT
