@<TRIPOS>MOLECULE
W9B
   46    46     1     0     0
SMALL
abcg2


@<TRIPOS>ATOM
      1 C10          5.4250     7.5530    21.7640 c3         1 W9B       0.008300
      2 C11          2.2380     4.8990    18.8520 c3         1 W9B       0.010300
      3 O12          7.1210     4.6020    15.6420 o          1 W9B      -0.683000
      4 C19          6.7380     6.9710    22.3350 c3         1 W9B      -0.085767
      5 C20          5.4920     9.0950    21.6780 c3         1 W9B      -0.085767
      6 C21          4.3320     7.2340    22.7980 c3         1 W9B      -0.085767
      7 C22          1.0750     5.8520    19.1880 c3         1 W9B      -0.081100
      8 C23          2.0140     4.3470    17.4390 c3         1 W9B      -0.081100
      9 C24          2.2240     3.7160    19.8390 c3         1 W9B      -0.081100
     10 C1           6.5870     6.6060    16.8180 c3         1 W9B       0.028300
     11 C2           5.6510     6.4980    18.0340 ca         1 W9B      -0.090300
     12 C3           6.4760     7.9910    16.1430 c3         1 W9B       0.289000
     13 C4           5.9720     7.0740    19.2750 ca         1 W9B       0.164100
     14 C5           5.1060     6.9400    20.3850 ca         1 W9B      -0.187300
     15 C6           4.4470     5.8000    17.9160 ca         1 W9B      -0.038000
     16 C7           3.5650     5.6530    18.9750 ca         1 W9B      -0.128300
     17 C8           6.2550     5.5090    15.7050 c          1 W9B       0.705000
     18 C9           3.9250     6.2300    20.1920 ca         1 W9B      -0.077000
     19 O13          7.9440     6.4200    17.1640 oh         1 W9B      -0.671000
     20 F14          7.0810     8.9750    16.8390 f          1 W9B      -0.128000
     21 F15          5.1980     8.3820    15.9660 f          1 W9B      -0.128000
     22 F16          7.0650     7.9930    14.9200 f          1 W9B      -0.128000
     23 O18          5.2320     5.6430    15.0170 o          1 W9B      -0.683000
     24 H30          6.9230     7.3930    23.3260 hc         1 W9B       0.032256
     25 H31          6.6510     5.8880    22.4360 hc         1 W9B       0.032256
     26 H32          7.6210     7.1710    21.7280 hc         1 W9B       0.032256
     27 H33          5.6960     9.5070    22.6690 hc         1 W9B       0.032256
     28 H35          6.2600     9.4820    21.0070 hc         1 W9B       0.032256
     29 H34          4.5350     9.4900    21.3330 hc         1 W9B       0.032256
     30 H36          4.6120     7.6830    23.7520 hc         1 W9B       0.032256
     31 H37          3.3640     7.6450    22.5080 hc         1 W9B       0.032256
     32 H38          4.2210     6.1600    22.9530 hc         1 W9B       0.032256
     33 H39          0.1200     5.3270    19.1070 hc         1 W9B       0.031256
     34 H41          1.1590     6.2430    20.2030 hc         1 W9B       0.031256
     35 H40          1.0600     6.6990    18.4980 hc         1 W9B       0.031256
     36 H43          1.0560     3.8250    17.4010 hc         1 W9B       0.031256
     37 H44          1.9920     5.1450    16.6940 hc         1 W9B       0.031256
     38 H42          2.7950     3.6380    17.1560 hc         1 W9B       0.031256
     39 H47          1.2770     3.1760    19.7630 hc         1 W9B       0.031256
     40 H45          3.0350     3.0200    19.6160 hc         1 W9B       0.031256
     41 H46          2.3390     4.0530    20.8700 hc         1 W9B       0.031256
     42 H25          4.2040     5.3830    16.9550 ha         1 W9B       0.161000
     43 H26          3.2510     6.1220    21.0250 ha         1 W9B       0.093000
     44 H27          8.1490     5.5790    16.6960 ho         1 W9B       0.485000
     45 H28          7.2360     8.1720    20.2240 ho         1 W9B       0.445000
     46 O17          7.1450     7.7670    19.3580 oh         1 W9B      -0.513100
@<TRIPOS>BOND
     1     1     4 1   
     2     1     5 1   
     3     1     6 1   
     4     1    14 1   
     5     2     7 1   
     6     2     8 1   
     7     2     9 1   
     8     2    16 1   
     9     3    17 1   
    10     4    24 1   
    11     4    25 1   
    12     4    26 1   
    13     5    27 1   
    14     5    28 1   
    15     5    29 1   
    16     6    30 1   
    17     6    31 1   
    18     6    32 1   
    19     7    33 1   
    20     7    34 1   
    21     7    35 1   
    22     8    36 1   
    23     8    37 1   
    24     8    38 1   
    25     9    39 1   
    26     9    40 1   
    27     9    41 1   
    28    10    11 1   
    29    10    12 1   
    30    10    17 1   
    31    10    19 1   
    32    11    13 ar  
    33    11    15 ar  
    34    12    20 1   
    35    12    21 1   
    36    12    22 1   
    37    13    14 ar  
    38    13    46 1   
    39    14    18 ar  
    40    15    16 ar  
    41    15    42 1   
    42    16    18 ar  
    43    17    23 1   
    44    18    43 1   
    45    19    44 1   
    46    45    46 1   
@<TRIPOS>SUBSTRUCTURE
     1 W9B         1 TEMP              0 ****  ****    0 ROOT
