@<TRIPOS>MOLECULE
W9C
   76    80     1     0     0
SMALL
No Charge or Current Charge


@<TRIPOS>ATOM
      1 O14         -6.2100   -14.7460     2.6200 o          1 W9C      -0.730000
      2 C5          -6.7710   -15.4880     1.8280 c          1 W9C       0.727000
      3 O15         -7.6260   -16.2740     2.2100 o          1 W9C      -0.730000
      4 C1          -6.4910   -15.3540     0.2820 c5         1 W9C      -0.128000
      5 C4          -5.3540   -16.3500    -0.2650 c5         1 W9C      -0.049700
      6 C12         -4.8220   -15.5530    -1.5150 c5         1 W9C      -0.083400
      7 C6          -5.8670   -14.3990    -1.6810 c5         1 W9C      -0.062700
      8 C10         -7.2000   -15.1480    -2.0770 c5         1 W9C      -0.072400
      9 C3          -7.7860   -15.5560    -0.6640 c5         1 W9C      -0.141000
     10 C11         -8.3750   -17.0080    -0.6440 c          1 W9C       0.637900
     11 O19         -8.4120   -17.7990    -1.5850 o          1 W9C      -0.580100
     12 C9          -8.9090   -14.5280    -0.1760 c5         1 W9C      -0.059700
     13 C18        -10.2140   -14.5760    -1.0100 c5         1 W9C      -0.078400
     14 C24        -10.8870   -13.2120    -0.6080 c5         1 W9C      -0.077400
     15 C22         -9.7320   -12.2920    -0.0430 c5         1 W9C      -0.054700
     16 C25         -9.8650   -11.9980     1.4750 c3         1 W9C      -0.084100
     17 C16         -8.4680   -13.0860    -0.4930 c5         1 W9C      -0.057700
     18 C7          -7.0840   -12.7670     0.0800 c6         1 W9C      -0.047400
     19 C2          -6.0220   -13.9070    -0.1880 c5         1 W9C      -0.022000
     20 C8          -4.6880   -13.3470     0.4360 c3         1 W9C       0.172600
     21 O17         -4.1960   -12.2720    -0.3890 os         1 W9C      -0.456000
     22 C52         -2.9530   -11.6860     0.0290 c6         1 W9C       0.405300
     23 O56         -1.8960   -12.6520    -0.1000 os         1 W9C      -0.466000
     24 C56         -0.6860   -12.2780     0.6090 c6         1 W9C       0.160300
     25 C61         -0.8210   -12.7480     2.0820 c3         1 W9C      -0.119100
     26 C55         -0.3860   -10.7350     0.4840 c6         1 W9C       0.148300
     27 O64          1.0250   -10.4070     0.6810 os         1 W9C      -0.457000
     28 C65          2.0130   -10.8480    -0.2740 c3         1 W9C       0.153900
     29 C54         -1.0370   -10.1330    -0.8170 c6         1 W9C       0.114300
     30 O60         -0.4340   -10.6580    -2.0220 oh         1 W9C      -0.704000
     31 C53         -2.5910   -10.4080    -0.8170 c6         1 W9C       0.104300
     32 O57         -3.3400    -9.2540    -0.3600 oh         1 W9C      -0.703000
     33 C13         -4.1970   -16.9010     0.7240 c3         1 W9C      -0.048700
     34 C20         -4.6540   -17.9460     1.8080 c3         1 W9C      -0.089100
     35 C21         -2.9460   -17.5260    -0.0000 c3         1 W9C      -0.089100
     36 H4          -5.8110   -17.2770    -0.6260 hc         1 W9C       0.058700
     37 H121        -3.8160   -15.1460    -1.3690 hc         1 W9C       0.035700
     38 H122        -4.7460   -16.1890    -2.4050 hc         1 W9C       0.035700
     39 H6          -5.5600   -13.6280    -2.3960 hc         1 W9C       0.053700
     40 H101        -7.8650   -14.5480    -2.7030 hc         1 W9C       0.035700
     41 H102        -6.9870   -16.0190    -2.7070 hc         1 W9C       0.035700
     42 H11         -8.8370   -17.3030     0.3220 h4         1 W9C       0.000200
     43 H9          -9.1390   -14.6710     0.8850 hc         1 W9C       0.088700
     44 H181       -10.0330   -14.6210    -2.0890 hc         1 W9C       0.033700
     45 H182       -10.8440   -15.4360    -0.7530 hc         1 W9C       0.033700
     46 H241       -11.3760   -12.7530    -1.4750 hc         1 W9C       0.027200
     47 H242       -11.6730   -13.3680     0.1400 hc         1 W9C       0.027200
     48 H22         -9.7520   -11.3130    -0.5360 hc         1 W9C       0.029700
     49 H251        -9.0580   -11.3420     1.8230 hc         1 W9C       0.032367
     50 H252       -10.8100   -11.4840     1.6860 hc         1 W9C       0.032367
     51 H253        -9.8440   -12.9090     2.0830 hc         1 W9C       0.032367
     52 H16         -8.3570   -12.8830    -1.5620 hc         1 W9C       0.033700
     53 H71         -6.7430   -11.8110    -0.3400 hc         1 W9C       0.049200
     54 H72         -7.1670   -12.6090     1.1630 hc         1 W9C       0.049200
     55 H81         -4.8750   -12.9790     1.4530 h1         1 W9C       0.056200
     56 H82         -3.9270   -14.1250     0.5200 h1         1 W9C       0.056200
     57 H52         -3.0470   -11.3930     1.0860 h2         1 W9C       0.038700
     58 H56          0.1340   -12.8490     0.1540 h1         1 W9C       0.072700
     59 H611         0.1180   -12.5920     2.6260 hc         1 W9C       0.045367
     60 H612        -1.6070   -12.2040     2.6180 hc         1 W9C       0.045367
     61 H613        -1.0570   -13.8180     2.1320 hc         1 W9C       0.045367
     62 H55         -0.9140   -10.2490     1.3180 h1         1 W9C       0.087700
     63 H651         3.0210   -10.6680     0.1220 h1         1 W9C       0.028033
     64 H652         1.9260   -11.9200    -0.4860 h1         1 W9C       0.028033
     65 H653         1.9310   -10.2920    -1.2150 h1         1 W9C       0.028033
     66 H54         -0.8780    -9.0450    -0.7910 h1         1 W9C       0.030700
     67 H60         -0.6850   -10.0570    -2.7610 ho         1 W9C       0.499000
     68 H53         -2.8900   -10.6290    -1.8520 h1         1 W9C       0.056700
     69 H57         -3.4140    -8.6330    -1.1220 ho         1 W9C       0.495000
     70 H13         -3.8060   -16.0540     1.2970 hc         1 W9C       0.070700
     71 H201        -3.7950   -18.3360     2.3670 hc         1 W9C       0.026033
     72 H202        -5.3300   -17.5060     2.5450 hc         1 W9C       0.026033
     73 H203        -5.1640   -18.7930     1.3340 hc         1 W9C       0.026033
     74 H211        -2.2010   -17.8770     0.7250 hc         1 W9C       0.026033
     75 H212        -3.2480   -18.3770    -0.6220 hc         1 W9C       0.026033
     76 H213        -2.4460   -16.7930    -0.6430 hc         1 W9C       0.026033
@<TRIPOS>BOND
     1     1     2 1   
     2     2     3 1   
     3     2     4 1   
     4     4     5 1   
     5     4     9 1   
     6     4    19 1   
     7     5     6 1   
     8     5    33 1   
     9     5    36 1   
    10     6     7 1   
    11     6    37 1   
    12     6    38 1   
    13     7     8 1   
    14     7    19 1   
    15     7    39 1   
    16     8     9 1   
    17     8    40 1   
    18     8    41 1   
    19     9    10 1   
    20     9    12 1   
    21    10    11 2   
    22    10    42 1   
    23    12    13 1   
    24    12    17 1   
    25    12    43 1   
    26    13    14 1   
    27    13    44 1   
    28    13    45 1   
    29    14    15 1   
    30    14    46 1   
    31    14    47 1   
    32    15    16 1   
    33    15    17 1   
    34    15    48 1   
    35    16    49 1   
    36    16    50 1   
    37    16    51 1   
    38    17    18 1   
    39    17    52 1   
    40    18    19 1   
    41    18    53 1   
    42    18    54 1   
    43    19    20 1   
    44    20    21 1   
    45    20    55 1   
    46    20    56 1   
    47    21    22 1   
    48    22    23 1   
    49    22    31 1   
    50    22    57 1   
    51    23    24 1   
    52    24    25 1   
    53    24    26 1   
    54    24    58 1   
    55    25    59 1   
    56    25    60 1   
    57    25    61 1   
    58    26    27 1   
    59    26    29 1   
    60    26    62 1   
    61    27    28 1   
    62    28    63 1   
    63    28    64 1   
    64    28    65 1   
    65    29    30 1   
    66    29    31 1   
    67    29    66 1   
    68    30    67 1   
    69    31    32 1   
    70    31    68 1   
    71    32    69 1   
    72    33    34 1   
    73    33    35 1   
    74    33    70 1   
    75    34    71 1   
    76    34    72 1   
    77    34    73 1   
    78    35    74 1   
    79    35    75 1   
    80    35    76 1   
@<TRIPOS>SUBSTRUCTURE
     1 W9C         1 TEMP              0 ****  ****    0 ROOT
