@<TRIPOS>MOLECULE
W9C
   76    80     1     0     0
SMALL
abcg2


@<TRIPOS>ATOM
      1 O14         -6.4430   -14.6540     2.7010 o          1 W9C      -0.730000
      2 C5          -6.8970   -15.4400     1.8470 c          1 W9C       0.727000
      3 O15         -7.6540   -16.4130     2.0720 o          1 W9C      -0.730000
      4 C1          -6.4890   -15.2440     0.3830 c5         1 W9C      -0.128000
      5 C4          -5.2820   -16.1600    -0.0670 c5         1 W9C      -0.049700
      6 C12         -4.7070   -15.3910    -1.2910 c5         1 W9C      -0.083400
      7 C6          -5.7820   -14.3420    -1.5540 c5         1 W9C      -0.062700
      8 C10         -7.0320   -15.1580    -1.9580 c5         1 W9C      -0.072400
      9 C3          -7.6880   -15.5070    -0.6080 c5         1 W9C      -0.141000
     10 C11         -8.2470   -16.9050    -0.5060 c          1 W9C       0.637900
     11 O19         -7.8270   -17.8780    -1.0900 o          1 W9C      -0.580100
     12 C9          -8.8300   -14.5270    -0.2990 c5         1 W9C      -0.059700
     13 C18        -10.1520   -14.6430    -1.0550 c5         1 W9C      -0.078400
     14 C24        -10.8350   -13.2870    -0.7670 c5         1 W9C      -0.077400
     15 C22         -9.7210   -12.3020    -0.3100 c5         1 W9C      -0.054700
     16 C25         -9.8790   -11.8890     1.1480 c3         1 W9C      -0.084100
     17 C16         -8.4380   -13.0950    -0.6060 c5         1 W9C      -0.057700
     18 C7          -7.1310   -12.7410     0.0600 c6         1 W9C      -0.047400
     19 C2          -6.0560   -13.8320    -0.1110 c5         1 W9C      -0.022000
     20 C8          -4.7940   -13.2910     0.5650 c3         1 W9C       0.172600
     21 O17         -4.2360   -12.2700    -0.2600 os         1 W9C      -0.456000
     22 C52         -2.9930   -11.8390     0.1420 c6         1 W9C       0.405300
     23 O56         -2.0360   -12.7650    -0.3110 os         1 W9C      -0.466000
     24 C56         -0.7300   -12.5610     0.2120 c6         1 W9C       0.160300
     25 C61         -0.5270   -13.3060     1.5210 c3         1 W9C      -0.119100
     26 C55         -0.4400   -11.0520     0.3550 c6         1 W9C       0.148300
     27 O64          0.9320   -10.7790     0.4900 os         1 W9C      -0.457000
     28 C65          1.7770   -10.9440    -0.6280 c3         1 W9C       0.153900
     29 C54         -1.2000   -10.2720    -0.7120 c6         1 W9C       0.114300
     30 O60         -0.8420   -10.7470    -1.9860 oh         1 W9C      -0.704000
     31 C53         -2.7130   -10.4530    -0.4490 c6         1 W9C       0.104300
     32 O57         -3.2120    -9.5200     0.4780 oh         1 W9C      -0.703000
     33 C13         -4.2630   -16.5830     1.0250 c3         1 W9C      -0.048700
     34 C20         -4.6830   -17.9050     1.6700 c3         1 W9C      -0.089100
     35 C21         -2.8430   -16.7480     0.4810 c3         1 W9C      -0.089100
     36 H4          -5.6910   -17.1000    -0.4410 hc         1 W9C       0.058700
     37 H121        -3.7390   -14.9320    -1.0950 hc         1 W9C       0.035700
     38 H122        -4.5670   -16.0510    -2.1490 hc         1 W9C       0.035700
     39 H6          -5.5040   -13.5810    -2.2840 hc         1 W9C       0.053700
     40 H101        -7.7130   -14.6210    -2.6190 hc         1 W9C       0.035700
     41 H102        -6.7300   -16.0540    -2.5030 hc         1 W9C       0.035700
     42 H11         -9.1450   -16.9960     0.1260 h4         1 W9C       0.000200
     43 H9          -9.0610   -14.6110     0.7690 hc         1 W9C       0.088700
     44 H181        -9.9670   -14.7640    -2.1270 hc         1 W9C       0.033700
     45 H182       -10.7690   -15.4860    -0.7390 hc         1 W9C       0.033700
     46 H241       -11.3680   -12.9160    -1.6440 hc         1 W9C       0.027200
     47 H242       -11.5830   -13.4030     0.0210 hc         1 W9C       0.027200
     48 H22         -9.7460   -11.3950    -0.9200 hc         1 W9C       0.029700
     49 H251        -9.1220   -11.1630     1.4480 hc         1 W9C       0.032367
     50 H252       -10.8560   -11.4300     1.3130 hc         1 W9C       0.032367
     51 H253        -9.8040   -12.7440     1.8240 hc         1 W9C       0.032367
     52 H16         -8.2940   -13.0160    -1.6890 hc         1 W9C       0.033700
     53 H71         -6.7500   -11.7890    -0.3210 hc         1 W9C       0.049200
     54 H72         -7.2830   -12.6060     1.1340 hc         1 W9C       0.049200
     55 H81         -5.0510   -12.8680     1.5400 h1         1 W9C       0.056200
     56 H82         -4.0510   -14.0660     0.7460 h1         1 W9C       0.056200
     57 H52         -2.9500   -11.7620     1.2440 h2         1 W9C       0.038700
     58 H56         -0.0590   -12.9880    -0.5380 h1         1 W9C       0.072700
     59 H611         0.4880   -13.1580     1.8890 hc         1 W9C       0.045367
     60 H612        -1.2150   -12.9610     2.2950 hc         1 W9C       0.045367
     61 H613        -0.6770   -14.3780     1.3850 hc         1 W9C       0.045367
     62 H55         -0.8540   -10.7140     1.3130 h1         1 W9C       0.087700
     63 H651         2.7990   -10.8800    -0.2540 h1         1 W9C       0.028033
     64 H652         1.6630   -11.9130    -1.1200 h1         1 W9C       0.028033
     65 H653         1.6380   -10.1640    -1.3800 h1         1 W9C       0.028033
     66 H54         -0.9570    -9.2030    -0.6090 h1         1 W9C       0.030700
     67 H60         -1.2530   -10.1830    -2.6490 ho         1 W9C       0.499000
     68 H53         -3.2310   -10.3710    -1.4160 h1         1 W9C       0.056700
     69 H57         -3.1730    -8.6430     0.0840 ho         1 W9C       0.495000
     70 H13         -4.2240   -15.8280     1.8150 hc         1 W9C       0.070700
     71 H201        -4.0190   -18.1660     2.4970 hc         1 W9C       0.026033
     72 H202        -5.7000   -17.8700     2.0550 hc         1 W9C       0.026033
     73 H203        -4.6320   -18.7170     0.9400 hc         1 W9C       0.026033
     74 H211        -2.1960   -17.1830     1.2460 hc         1 W9C       0.026033
     75 H212        -2.8230   -17.4150    -0.3850 hc         1 W9C       0.026033
     76 H213        -2.3900   -15.8030     0.1820 hc         1 W9C       0.026033
@<TRIPOS>BOND
     1     1     2 1   
     2     2     3 1   
     3     2     4 1   
     4     4     5 1   
     5     4     9 1   
     6     4    19 1   
     7     5     6 1   
     8     5    33 1   
     9     5    36 1   
    10     6     7 1   
    11     6    37 1   
    12     6    38 1   
    13     7     8 1   
    14     7    19 1   
    15     7    39 1   
    16     8     9 1   
    17     8    40 1   
    18     8    41 1   
    19     9    10 1   
    20     9    12 1   
    21    10    11 2   
    22    10    42 1   
    23    12    13 1   
    24    12    17 1   
    25    12    43 1   
    26    13    14 1   
    27    13    44 1   
    28    13    45 1   
    29    14    15 1   
    30    14    46 1   
    31    14    47 1   
    32    15    16 1   
    33    15    17 1   
    34    15    48 1   
    35    16    49 1   
    36    16    50 1   
    37    16    51 1   
    38    17    18 1   
    39    17    52 1   
    40    18    19 1   
    41    18    53 1   
    42    18    54 1   
    43    19    20 1   
    44    20    21 1   
    45    20    55 1   
    46    20    56 1   
    47    21    22 1   
    48    22    23 1   
    49    22    31 1   
    50    22    57 1   
    51    23    24 1   
    52    24    25 1   
    53    24    26 1   
    54    24    58 1   
    55    25    59 1   
    56    25    60 1   
    57    25    61 1   
    58    26    27 1   
    59    26    29 1   
    60    26    62 1   
    61    27    28 1   
    62    28    63 1   
    63    28    64 1   
    64    28    65 1   
    65    29    30 1   
    66    29    31 1   
    67    29    66 1   
    68    30    67 1   
    69    31    32 1   
    70    31    68 1   
    71    32    69 1   
    72    33    34 1   
    73    33    35 1   
    74    33    70 1   
    75    34    71 1   
    76    34    72 1   
    77    34    73 1   
    78    35    74 1   
    79    35    75 1   
    80    35    76 1   
@<TRIPOS>SUBSTRUCTURE
     1 W9C         1 TEMP              0 ****  ****    0 ROOT
