@<TRIPOS>MOLECULE
W9D
   56    60     1     0     0
SMALL
No Charge or Current Charge


@<TRIPOS>ATOM
      1 C18         30.1410   -83.6170    -5.1570 ca         1 W9D       0.002000
      2 C17         29.2130   -82.5850    -5.3470 ca         1 W9D      -0.226600
      3 C16         28.3100   -82.2300    -4.3820 ca         1 W9D      -0.066300
      4 C15         28.2810   -82.8930    -3.1450 ca         1 W9D      -0.125000
      5 C19         30.1260   -84.2930    -3.9200 ca         1 W9D      -0.184000
      6 C20         25.0610   -81.5650    -0.9170 ca         1 W9D      -0.099500
      7 C21         23.8740   -82.2530    -1.2220 ca         1 W9D      -0.107500
      8 C22         23.1800   -82.9390    -0.2120 ca         1 W9D      -0.104000
      9 C23         23.6730   -82.9340     1.1030 ca         1 W9D      -0.107500
     10 C24         24.8600   -82.2460     1.4080 ca         1 W9D      -0.099500
     11 C11         26.6190   -79.4500     1.4240 c3         1 W9D       0.147600
     12 C12         25.5710   -81.5590     0.3980 ca         1 W9D      -0.091300
     13 C27         28.9970   -81.7190    -6.5230 c          1 W9D       0.680700
     14 C1          28.3170   -83.9290     2.1890 ca         1 W9D      -0.391500
     15 C2          28.7340   -85.1900     1.7290 ca         1 W9D       0.226900
     16 N3          29.0300   -85.4170     0.4380 nb         1 W9D      -0.274000
     17 C4          28.8870   -84.3810    -0.3970 ca         1 W9D       0.438900
     18 N5          28.4960   -83.1430    -0.0740 nb         1 W9D      -0.326000
     19 C6          28.2050   -82.9220     1.2160 ca         1 W9D       0.465900
     20 C7          27.9810   -83.7660     3.6020 cc         1 W9D       0.514500
     21 N8          27.7750   -81.6460     1.5200 nu         1 W9D      -0.910100
     22 C10         26.8760   -80.8110     0.7040 c3         1 W9D       0.283800
     23 C14         29.2110   -83.9310    -2.9060 ca         1 W9D       0.347000
     24 C25         27.4450   -81.1000    -4.8980 c5         1 W9D       0.230300
     25 O26         27.9600   -80.8530    -6.2460 os         1 W9D      -0.431100
     26 C28         25.9580   -81.4990    -5.0090 c3         1 W9D      -0.091100
     27 C29         27.6070   -79.8080    -4.0680 c3         1 W9D      -0.091100
     28 O30         29.6250   -81.7550    -7.5710 o          1 W9D      -0.490000
     29 O31         27.7710   -82.5340     4.1280 os         1 W9D      -0.303000
     30 C32         27.5120   -82.8190     5.4320 cc         1 W9D       0.402900
     31 N33         27.5680   -84.1170     5.6890 nd         1 W9D      -0.347000
     32 N34         27.8770   -84.7300     4.5020 nd         1 W9D      -0.373000
     33 H43         30.8490   -83.8900    -5.9380 ha         1 W9D       0.138000
     34 H42         27.5440   -82.6210    -2.3990 ha         1 W9D       0.156000
     35 H44         30.8370   -85.0960    -3.7480 ha         1 W9D       0.120000
     36 H45         25.5840   -81.0320    -1.7060 ha         1 W9D       0.110500
     37 H46         23.4900   -82.2520    -2.2400 ha         1 W9D       0.114500
     38 H47         22.2610   -83.4710    -0.4470 ha         1 W9D       0.115000
     39 H48         23.1350   -83.4620     1.8870 ha         1 W9D       0.114500
     40 H49         25.2280   -82.2500     2.4310 ha         1 W9D       0.110500
     41 H39         27.5230   -78.8350     1.3290 h1         1 W9D       0.036200
     42 H40         25.8080   -78.9210     0.9050 h1         1 W9D       0.036200
     43 H35         28.8430   -86.0420     2.3990 h4         1 W9D       0.046100
     44 H36         27.6550   -81.4820     2.5200 hn         1 W9D       0.523000
     45 H38         27.3680   -80.5820    -0.2530 h1         1 W9D       0.089700
     46 H41         26.1080   -78.7360     3.1900 ho         1 W9D       0.450000
     47 H52         25.5370   -81.7450    -4.0280 hc         1 W9D       0.051533
     48 H50         25.3590   -80.6870    -5.4380 hc         1 W9D       0.051533
     49 H51         25.8360   -82.3800    -5.6510 hc         1 W9D       0.051533
     50 H53         27.2820   -79.9560    -3.0330 hc         1 W9D       0.051533
     51 H54         28.6560   -79.4900    -4.0410 hc         1 W9D       0.051533
     52 H55         27.0180   -78.9860    -4.4920 hc         1 W9D       0.051533
     53 H56         27.2950   -82.0100     6.1190 h5         1 W9D       0.093100
     54 N9          29.2440   -84.6490    -1.7080 nu         1 W9D      -0.921900
     55 O13         26.2990   -79.6280     2.8240 oh         1 W9D      -0.660000
     56 H37         29.7200   -85.5460    -1.7900 hn         1 W9D       0.519000
@<TRIPOS>BOND
     1     1     2 ar  
     2     1     5 ar  
     3     1    33 1   
     4     2     3 ar  
     5     2    13 1   
     6     3     4 ar  
     7     3    24 1   
     8     4    23 ar  
     9     4    34 1   
    10     5    23 ar  
    11     5    35 1   
    12     6     7 ar  
    13     6    12 ar  
    14     6    36 1   
    15     7     8 ar  
    16     7    37 1   
    17     8     9 ar  
    18     8    38 1   
    19     9    10 ar  
    20     9    39 1   
    21    10    12 ar  
    22    10    40 1   
    23    11    22 1   
    24    11    41 1   
    25    11    42 1   
    26    11    55 1   
    27    12    22 1   
    28    13    25 1   
    29    13    28 2   
    30    14    15 ar  
    31    14    19 ar  
    32    14    20 1   
    33    15    16 ar  
    34    15    43 1   
    35    16    17 ar  
    36    17    18 ar  
    37    17    54 1   
    38    18    19 ar  
    39    19    21 1   
    40    20    29 1   
    41    20    32 2   
    42    21    22 1   
    43    21    44 1   
    44    22    45 1   
    45    23    54 1   
    46    24    25 1   
    47    24    26 1   
    48    24    27 1   
    49    26    47 1   
    50    26    48 1   
    51    26    49 1   
    52    27    50 1   
    53    27    51 1   
    54    27    52 1   
    55    29    30 1   
    56    30    31 2   
    57    30    53 1   
    58    31    32 1   
    59    46    55 1   
    60    54    56 1   
@<TRIPOS>SUBSTRUCTURE
     1 W9D         1 TEMP              0 ****  ****    0 ROOT
