@<TRIPOS>MOLECULE
W9D
   56    60     1     0     0
SMALL
bcc


@<TRIPOS>ATOM
      1 C18         29.9560   -83.7740    -5.0760 ca         1 W9D      -0.016000
      2 C17         29.0000   -82.7770    -5.2200 ca         1 W9D      -0.226600
      3 C16         28.2450   -82.3600    -4.1460 ca         1 W9D      -0.066300
      4 C15         28.3990   -82.8960    -2.8820 ca         1 W9D      -0.143000
      5 C19         30.1340   -84.3190    -3.8250 ca         1 W9D      -0.202000
      6 C20         24.8390   -80.8200    -0.9660 ca         1 W9D      -0.117500
      7 C21         23.5680   -81.1750    -1.3980 ca         1 W9D      -0.125500
      8 C22         22.8790   -82.2020    -0.7650 ca         1 W9D      -0.122000
      9 C23         23.4720   -82.8640     0.3000 ca         1 W9D      -0.125500
     10 C24         24.7430   -82.5040     0.7320 ca         1 W9D      -0.117500
     11 C11         26.8190   -79.6330     1.1220 c3         1 W9D       0.124400
     12 C12         25.4420   -81.4790     0.1040 ca         1 W9D      -0.091300
     13 C27         28.5940   -82.0080    -6.3930 c          1 W9D       0.756200
     14 C1          28.6310   -83.8550     2.3240 ca         1 W9D      -0.522100
     15 C2          29.4810   -84.8710     1.9080 ca         1 W9D       0.555200
     16 N3          29.8290   -85.0810     0.6560 nb         1 W9D      -0.800000
     17 C4          29.2810   -84.2470    -0.2370 ca         1 W9D       0.964900
     18 N5          28.4660   -83.2430     0.0240 nb         1 W9D      -0.852000
     19 C6          28.1460   -83.0000     1.2970 ca         1 W9D       0.794200
     20 C7          28.3040   -83.7600     3.7260 cc         1 W9D       0.558900
     21 N8          27.3870   -81.9280     1.5510 nu         1 W9D      -0.854900
     22 C10         26.8270   -81.0470     0.5530 c3         1 W9D       0.283800
     23 C14         29.3710   -83.8890    -2.7180 ca         1 W9D       0.208600
     24 C25         27.3040   -81.2840    -4.6100 c5         1 W9D       0.207100
     25 O26         27.6270   -81.1580    -6.0160 os         1 W9D      -0.407900
     26 C28         25.8480   -81.7050    -4.4890 c3         1 W9D      -0.091100
     27 C29         27.5770   -79.9510    -3.9330 c3         1 W9D      -0.091100
     28 O30         28.9920   -82.0630    -7.5280 o          1 W9D      -0.565500
     29 O31         27.1570   -83.1820     4.1290 os         1 W9D      -0.391800
     30 C32         27.1760   -83.3510     5.4620 cc         1 W9D       0.447300
     31 N33         28.2220   -83.9750     5.8500 nd         1 W9D      -0.347000
     32 N34         28.9660   -84.2340     4.7290 nd         1 W9D      -0.373000
     33 H43         30.5560   -84.1120    -5.9110 ha         1 W9D       0.156000
     34 H42         27.8000   -82.5660    -2.0480 ha         1 W9D       0.174000
     35 H44         30.8810   -85.0910    -3.6810 ha         1 W9D       0.138000
     36 H45         25.3620   -80.0150    -1.4720 ha         1 W9D       0.128500
     37 H46         23.1220   -80.6510    -2.2330 ha         1 W9D       0.132500
     38 H47         21.8900   -82.4840    -1.1000 ha         1 W9D       0.133000
     39 H48         22.9430   -83.6640     0.8020 ha         1 W9D       0.132500
     40 H49         25.1850   -83.0340     1.5660 ha         1 W9D       0.128500
     41 H39         27.8530   -79.3380     1.3280 h1         1 W9D       0.036200
     42 H40         26.4280   -78.9460     0.3610 h1         1 W9D       0.036200
     43 H35         29.8890   -85.5550     2.6440 h4         1 W9D       0.046100
     44 H36         27.1400   -81.7130     2.5030 hn         1 W9D       0.467800
     45 H38         27.4930   -81.0400    -0.3120 h1         1 W9D       0.089700
     46 H41         26.2740   -78.8720     2.8210 ho         1 W9D       0.411000
     47 H52         25.5950   -81.8650    -3.4410 hc         1 W9D       0.051533
     48 H50         25.1860   -80.9300    -4.8770 hc         1 W9D       0.051533
     49 H51         25.6570   -82.6330    -5.0270 hc         1 W9D       0.051533
     50 H53         27.4050   -80.0400    -2.8600 hc         1 W9D       0.051533
     51 H54         28.6090   -79.6340    -4.0780 hc         1 W9D       0.051533
     52 H55         26.9130   -79.1750    -4.3140 hc         1 W9D       0.051533
     53 H56         26.3580   -82.9620     6.0470 h5         1 W9D       0.093100
     54 N9          29.6570   -84.5130    -1.5190 nu         1 W9D      -0.728300
     55 O13         26.0310   -79.6350     2.2880 oh         1 W9D      -0.597800
     56 H37         30.3110   -85.2800    -1.5760 hn         1 W9D       0.463800
@<TRIPOS>BOND
     1     1     2 ar  
     2     1     5 ar  
     3     1    33 1   
     4     2     3 ar  
     5     2    13 1   
     6     3     4 ar  
     7     3    24 1   
     8     4    23 ar  
     9     4    34 1   
    10     5    23 ar  
    11     5    35 1   
    12     6     7 ar  
    13     6    12 ar  
    14     6    36 1   
    15     7     8 ar  
    16     7    37 1   
    17     8     9 ar  
    18     8    38 1   
    19     9    10 ar  
    20     9    39 1   
    21    10    12 ar  
    22    10    40 1   
    23    11    22 1   
    24    11    41 1   
    25    11    42 1   
    26    11    55 1   
    27    12    22 1   
    28    13    25 1   
    29    13    28 2   
    30    14    15 ar  
    31    14    19 ar  
    32    14    20 1   
    33    15    16 ar  
    34    15    43 1   
    35    16    17 ar  
    36    17    18 ar  
    37    17    54 1   
    38    18    19 ar  
    39    19    21 1   
    40    20    29 1   
    41    20    32 2   
    42    21    22 1   
    43    21    44 1   
    44    22    45 1   
    45    23    54 1   
    46    24    25 1   
    47    24    26 1   
    48    24    27 1   
    49    26    47 1   
    50    26    48 1   
    51    26    49 1   
    52    27    50 1   
    53    27    51 1   
    54    27    52 1   
    55    29    30 1   
    56    30    31 2   
    57    30    53 1   
    58    31    32 1   
    59    46    55 1   
    60    54    56 1   
@<TRIPOS>SUBSTRUCTURE
     1 W9D         1 TEMP              0 ****  ****    0 ROOT
