@<TRIPOS>MOLECULE
W9E
   21    21     1     0     0
SMALL
abcg2


@<TRIPOS>ATOM
      1 N1          -2.7950    18.2150   -34.7080 n2         1 W9E      -0.774100
      2 C7          -0.2820    12.2930   -35.5750 c3         1 W9E       0.343300
      3 C1          -0.8670    14.6670   -36.0500 ca         1 W9E      -0.064000
      4 C5          -2.5950    15.8210   -34.8210 ca         1 W9E      -0.106900
      5 C6          -3.3640    17.0780   -34.5900 ce         1 W9E       0.618800
      6 C4          -2.8160    14.6690   -34.0670 ca         1 W9E      -0.087500
      7 C3          -2.0680    13.5210   -34.2970 ca         1 W9E      -0.064000
      8 C2          -1.0990    13.5200   -35.2910 ca         1 W9E      -0.178300
      9 F2          -0.5810    11.2620   -34.7620 f          1 W9E      -0.111000
     10 F           -0.4570    11.8520   -36.8450 f          1 W9E      -0.111000
     11 F1           1.0460    12.5270   -35.4390 f          1 W9E      -0.111000
     12 C           -1.6100    15.8090   -35.8120 ca         1 W9E      -0.087500
     13 N           -4.7120    16.8780   -34.3420 nu         1 W9E      -0.688900
     14 O           -5.3790    17.9780   -33.7750 oh         1 W9E      -0.442300
     15 H1          -3.4670    18.9610   -34.5260 hn         1 W9E       0.397400
     16 H2          -0.1110    14.6640   -36.8240 ha         1 W9E       0.134500
     17 H3          -3.5510    14.6570   -33.2730 ha         1 W9E       0.130000
     18 H4          -2.2430    12.6370   -33.7000 ha         1 W9E       0.134500
     19 H5          -1.4370    16.7020   -36.3960 ha         1 W9E       0.130000
     20 H6          -4.9750    16.0320   -33.8540 hn         1 W9E       0.476000
     21 H7          -6.0050    18.2650   -34.4550 ho         1 W9E       0.463000
@<TRIPOS>BOND
     1     1     5 2   
     2     1    15 1   
     3     2     8 1   
     4     2     9 1   
     5     2    10 1   
     6     2    11 1   
     7     3     8 ar  
     8     3    12 ar  
     9     3    16 1   
    10     4     5 1   
    11     4     6 ar  
    12     4    12 ar  
    13     5    13 1   
    14     6     7 ar  
    15     6    17 1   
    16     7     8 ar  
    17     7    18 1   
    18    12    19 1   
    19    13    14 1   
    20    13    20 1   
    21    14    21 1   
@<TRIPOS>SUBSTRUCTURE
     1 W9E         1 TEMP              0 ****  ****    0 ROOT
