@<TRIPOS>MOLECULE
W9E
   21    21     1     0     0
SMALL
No Charge or Current Charge


@<TRIPOS>ATOM
      1 N1          -3.3400    18.0750   -35.5420 n2         1 W9E      -0.774100
      2 C7          -0.1840    12.2260   -35.5090 c3         1 W9E       0.343300
      3 C1          -0.6320    14.7230   -35.8340 ca         1 W9E      -0.064000
      4 C5          -2.6570    15.8060   -34.9710 ca         1 W9E      -0.106900
      5 C6          -3.5180    17.0320   -34.8230 ce         1 W9E       0.618800
      6 C4          -3.0820    14.5490   -34.4820 ca         1 W9E      -0.087500
      7 C3          -2.2860    13.4030   -34.6490 ca         1 W9E      -0.064000
      8 C2          -1.0460    13.4790   -35.3170 ca         1 W9E      -0.178300
      9 F2          -0.3380    11.3360   -34.5010 f          1 W9E      -0.111000
     10 F           -0.5010    11.5830   -36.6550 f          1 W9E      -0.111000
     11 F1           1.1370    12.5130   -35.5690 f          1 W9E      -0.111000
     12 C           -1.4280    15.8690   -35.6670 ca         1 W9E      -0.087500
     13 N           -4.5050    17.0490   -33.8270 nu         1 W9E      -0.688900
     14 O           -5.1300    18.3390   -33.4660 oh         1 W9E      -0.442300
     15 H1          -3.9760    18.7770   -35.1410 hn         1 W9E       0.397400
     16 H2           0.3100    14.8090   -36.3730 ha         1 W9E       0.134500
     17 H3          -4.0400    14.4440   -33.9770 ha         1 W9E       0.130000
     18 H4          -2.6450    12.4500   -34.2630 ha         1 W9E       0.134500
     19 H5          -1.0790    16.8140   -36.0780 ha         1 W9E       0.130000
     20 H6          -4.3450    16.4410   -33.0150 hn         1 W9E       0.476000
     21 H7          -6.0820    18.2910   -33.7420 ho         1 W9E       0.463000
@<TRIPOS>BOND
     1     1     5 2   
     2     1    15 1   
     3     2     8 1   
     4     2     9 1   
     5     2    10 1   
     6     2    11 1   
     7     3     8 ar  
     8     3    12 ar  
     9     3    16 1   
    10     4     5 1   
    11     4     6 ar  
    12     4    12 ar  
    13     5    13 1   
    14     6     7 ar  
    15     6    17 1   
    16     7     8 ar  
    17     7    18 1   
    18    12    19 1   
    19    13    14 1   
    20    13    20 1   
    21    14    21 1   
@<TRIPOS>SUBSTRUCTURE
     1 W9E         1 TEMP              0 ****  ****    0 ROOT
