@<TRIPOS>MOLECULE
W9F
   26    27     1     0     0
SMALL
No Charge or Current Charge


@<TRIPOS>ATOM
      1 C01          4.1830     6.6470    18.1550 c6         1 W9F      -0.152700
      2 C02          4.7320     6.8970    19.5860 ca         1 W9F      -0.062300
      3 C04          4.7230     5.2890    17.6660 c          1 W9F       0.564500
      4 C05          2.6180     6.5770    18.0700 c3         1 W9F      -0.086100
      5 C06          3.8910     7.0480    20.7150 ca         1 W9F      -0.064000
      6 C07          6.1310     6.9780    19.7720 ca         1 W9F      -0.089000
      7 C13          6.6750     7.2020    21.0480 ca         1 W9F      -0.088000
      8 C15          5.8330     7.3500    22.1600 ca         1 W9F       0.135000
      9 C03          4.6310     7.8190    17.2590 c          1 W9F       0.564500
     10 N08          5.4030     7.5230    16.1740 ns         1 W9F      -0.422500
     11 O09          4.3250     8.9760    17.5020 o          1 W9F      -0.471000
     12 N10          5.4840     5.2850    16.5330 ns         1 W9F      -0.422500
     13 O11          4.4970     4.2480    18.2610 o          1 W9F      -0.471000
     14 C12          4.4370     7.2720    21.9910 ca         1 W9F       0.124000
     15 C14          5.8560     6.3220    15.7490 cs         1 W9F       0.454400
     16 Cl16         3.3450     7.4530    23.3660 cl         1 W9F      -0.169000
     17 S17          6.7990     6.1380    14.3910 s          1 W9F      -0.498400
     18 Cl18         6.5480     7.6310    23.7480 cl         1 W9F      -0.167000
     19 H21          2.2840     6.3990    17.0390 hc         1 W9F       0.064367
     20 H20          2.2120     5.7620    18.6840 hc         1 W9F       0.064367
     21 H19          2.1480     7.5110    18.4030 hc         1 W9F       0.064367
     22 H22          2.8110     6.9940    20.6280 ha         1 W9F       0.136000
     23 H23          6.8060     6.8660    18.9260 ha         1 W9F       0.120000
     24 H26          7.7540     7.2620    21.1750 ha         1 W9F       0.139000
     25 H24          5.6710     8.3200    15.6140 hn         1 W9F       0.366500
     26 H25          5.8140     4.3740    16.2480 hn         1 W9F       0.366500
@<TRIPOS>BOND
     1     1     2 1   
     2     1     3 1   
     3     1     4 1   
     4     1     9 1   
     5     2     5 ar  
     6     2     6 ar  
     7     3    12 1   
     8     3    13 2   
     9     4    19 1   
    10     4    20 1   
    11     4    21 1   
    12     5    14 ar  
    13     5    22 1   
    14     6     7 ar  
    15     6    23 1   
    16     7     8 ar  
    17     7    24 1   
    18     8    14 ar  
    19     8    18 1   
    20     9    10 1   
    21     9    11 2   
    22    10    15 1   
    23    10    25 1   
    24    12    15 1   
    25    12    26 1   
    26    14    16 1   
    27    15    17 2   
@<TRIPOS>SUBSTRUCTURE
     1 W9F         1 TEMP              0 ****  ****    0 ROOT
