@<TRIPOS>MOLECULE
W9F
   26    27     1     0     0
SMALL
abcg2


@<TRIPOS>ATOM
      1 C01          4.3250     6.6550    18.2030 c6         1 W9F      -0.152700
      2 C02          4.7920     6.8990    19.6330 ca         1 W9F      -0.062300
      3 C04          4.8610     5.3040    17.7290 c          1 W9F       0.564500
      4 C05          2.7860     6.5700    18.0440 c3         1 W9F      -0.086100
      5 C06          3.9020     7.0470    20.6860 ca         1 W9F      -0.064000
      6 C07          6.1620     6.9820    19.8870 ca         1 W9F      -0.089000
      7 C13          6.6320     7.2120    21.1670 ca         1 W9F      -0.088000
      8 C15          5.7370     7.3630    22.2210 ca         1 W9F       0.135000
      9 C03          4.7640     7.8320    17.3340 c          1 W9F       0.564500
     10 N08          5.2860     7.5330    16.0920 ns         1 W9F      -0.422500
     11 O09          4.6130     8.9850    17.6750 o          1 W9F      -0.471000
     12 N10          5.3740     5.2500    16.4500 ns         1 W9F      -0.422500
     13 O11          4.7920     4.3030    18.4070 o          1 W9F      -0.471000
     14 C12          4.3700     7.2780    21.9760 ca         1 W9F       0.124000
     15 C14          5.6030     6.2970    15.6050 cs         1 W9F       0.454400
     16 CL16         3.2110     7.4580    23.2590 cl         1 W9F      -0.169000
     17 S17          6.2430     6.0850    14.0940 s          1 W9F      -0.498400
     18 CL18         6.3560     7.6540    23.8180 cl         1 W9F      -0.167000
     19 H21          2.5270     6.3950    17.0000 hc         1 W9F       0.064367
     20 H20          2.3990     5.7490    18.6450 hc         1 W9F       0.064367
     21 H19          2.3320     7.5060    18.3650 hc         1 W9F       0.064367
     22 H22          2.8360     6.9890    20.5330 ha         1 W9F       0.136000
     23 H23          6.8750     6.8660    19.0790 ha         1 W9F       0.120000
     24 H26          7.6940     7.2760    21.3590 ha         1 W9F       0.139000
     25 H24          5.4940     8.3200    15.4890 hn         1 W9F       0.366500
     26 H25          5.6450     4.3340    16.1120 hn         1 W9F       0.366500
@<TRIPOS>BOND
     1     1     2 1   
     2     1     3 1   
     3     1     4 1   
     4     1     9 1   
     5     2     5 ar  
     6     2     6 ar  
     7     3    12 1   
     8     3    13 2   
     9     4    19 1   
    10     4    20 1   
    11     4    21 1   
    12     5    14 ar  
    13     5    22 1   
    14     6     7 ar  
    15     6    23 1   
    16     7     8 ar  
    17     7    24 1   
    18     8    14 ar  
    19     8    18 1   
    20     9    10 1   
    21     9    11 2   
    22    10    15 1   
    23    10    25 1   
    24    12    15 1   
    25    12    26 1   
    26    14    16 1   
    27    15    17 2   
@<TRIPOS>SUBSTRUCTURE
     1 W9F         1 TEMP              0 ****  ****    0 ROOT
