@<TRIPOS>MOLECULE
W9G
   59    59     1     0     0
SMALL
No Charge or Current Charge


@<TRIPOS>ATOM
      1 N1           7.4950    24.8230    16.3550 n7         1 W9G      -0.879400
      2 C4           7.6120    26.2270    14.2780 c6         1 W9G      -0.108400
      3 C5           7.3100    26.1900    15.8020 c6         1 W9G       0.136500
      4 C6           8.8800    24.3520    16.5460 c3         1 W9G       0.154800
      5 C7           8.8640    22.9250    17.1310 c3         1 W9G      -0.080400
      6 C8          10.2660    22.3500    17.4450 c3         1 W9G      -0.073400
      7 C10         12.5580    21.5460    16.5070 c3         1 W9G      -0.074400
      8 C13         13.9950    18.1240    17.8860 c3         1 W9G      -0.113400
      9 C15         14.8300    15.1940    18.0820 c3         1 W9G       0.143900
     10 C17          4.8170    25.8790    15.2690 c6         1 W9G       0.137300
     11 C1           5.1380    25.8900    13.7420 c6         1 W9G       0.165300
     12 C11         12.5630    20.1130    17.0920 c3         1 W9G      -0.075400
     13 C12         13.9870    19.5530    17.2980 c3         1 W9G      -0.074400
     14 C14         15.4250    17.5690    18.0870 c3         1 W9G       0.156600
     15 C16          5.8600    26.7160    16.0700 c6         1 W9G       0.129300
     16 C2           6.6040    25.3630    13.4620 c6         1 W9G       0.207000
     17 C3           6.9480    25.4040    11.9260 c3         1 W9G       0.165600
     18 C9          11.1510    22.1100    16.1960 c3         1 W9G      -0.074400
     19 O1           4.1140    25.1370    13.0590 oh         1 W9G      -0.702000
     20 O2           6.8930    26.7280    11.3500 oh         1 W9G      -0.732000
     21 O3           6.7670    24.0150    13.9350 oh         1 W9G      -0.739000
     22 O4          15.3720    16.3170    18.8040 os         1 W9G      -0.451000
     23 O5           5.5350    26.6710    17.4780 oh         1 W9G      -0.729000
     24 O6           3.4900    26.3840    15.5160 oh         1 W9G      -0.731000
     25 H1           7.0440    24.8220    17.2840 hn         1 W9G       0.431000
     26 H3           8.6410    25.8970    14.0840 hc         1 W9G       0.062200
     27 H4           7.5690    27.2690    13.9340 hc         1 W9G       0.062200
     28 H5           8.0120    26.8680    16.3110 h1         1 W9G       0.029700
     29 H6           9.4190    25.0180    17.2320 h1         1 W9G       0.033200
     30 H7           9.4170    24.3440    15.5890 h1         1 W9G       0.033200
     31 H8           8.2790    22.9320    18.0590 hc         1 W9G       0.049200
     32 H9           8.3450    22.2530    16.4360 hc         1 W9G       0.049200
     33 H10         10.1270    21.4020    17.9770 hc         1 W9G       0.040200
     34 H11         10.7860    23.0250    18.1360 hc         1 W9G       0.040200
     35 H12         13.1410    21.5460    15.5770 hc         1 W9G       0.037200
     36 H13         13.0740    22.2230    17.1980 hc         1 W9G       0.037200
     37 H14         13.4730    18.1290    18.8500 hc         1 W9G       0.046700
     38 H15         13.4330    17.4670    17.2120 hc         1 W9G       0.046700
     39 H16         14.9350    14.2770    18.6760 h1         1 W9G       0.027033
     40 H17         13.7620    15.3330    17.8700 h1         1 W9G       0.027033
     41 H18         15.3600    15.0460    17.1330 h1         1 W9G       0.027033
     42 H19          4.8790    24.8380    15.6240 h1         1 W9G       0.065700
     43 H20          5.0950    26.9380    13.4080 h1         1 W9G       0.052700
     44 H21         12.0400    20.1070    18.0550 hc         1 W9G       0.039700
     45 H22         12.0070    19.4470    16.4190 hc         1 W9G       0.039700
     46 H23         14.5170    19.5490    16.3370 hc         1 W9G       0.037200
     47 H24         14.5430    20.2210    17.9680 hc         1 W9G       0.037200
     48 H25         15.9200    17.4450    17.1140 h1         1 W9G       0.041200
     49 H26         16.0080    18.2980    18.6660 h1         1 W9G       0.041200
     50 H27          5.8080    27.7560    15.7120 h1         1 W9G       0.052700
     51 H28          6.2500    24.7390    11.3990 h1         1 W9G       0.038700
     52 H29          7.9540    24.9830    11.7910 h1         1 W9G       0.038700
     53 H30         11.2820    23.0570    15.6590 hc         1 W9G       0.039700
     54 H31         10.6330    21.4300    15.5080 hc         1 W9G       0.039700
     55 H32          3.3040    25.3100    13.5970 ho         1 W9G       0.514000
     56 H33          7.0920    26.6320    10.3890 ho         1 W9G       0.507000
     57 H34          7.0690    24.1630    14.8870 ho         1 W9G       0.548000
     58 H35          6.1740    27.2620    17.9410 ho         1 W9G       0.508000
     59 H36          3.5050    26.6310    16.4730 ho         1 W9G       0.520000
@<TRIPOS>BOND
     1     1     3 1   
     2     1     4 1   
     3     1    25 1   
     4     2     3 1   
     5     2    16 1   
     6     2    26 1   
     7     2    27 1   
     8     3    15 1   
     9     3    28 1   
    10     4     5 1   
    11     4    29 1   
    12     4    30 1   
    13     5     6 1   
    14     5    31 1   
    15     5    32 1   
    16     6    18 1   
    17     6    33 1   
    18     6    34 1   
    19     7    12 1   
    20     7    18 1   
    21     7    35 1   
    22     7    36 1   
    23     8    13 1   
    24     8    14 1   
    25     8    37 1   
    26     8    38 1   
    27     9    22 1   
    28     9    39 1   
    29     9    40 1   
    30     9    41 1   
    31    10    11 1   
    32    10    15 1   
    33    10    24 1   
    34    10    42 1   
    35    11    16 1   
    36    11    19 1   
    37    11    43 1   
    38    12    13 1   
    39    12    44 1   
    40    12    45 1   
    41    13    46 1   
    42    13    47 1   
    43    14    22 1   
    44    14    48 1   
    45    14    49 1   
    46    15    23 1   
    47    15    50 1   
    48    16    17 1   
    49    16    21 1   
    50    17    20 1   
    51    17    51 1   
    52    17    52 1   
    53    18    53 1   
    54    18    54 1   
    55    19    55 1   
    56    20    56 1   
    57    21    57 1   
    58    23    58 1   
    59    24    59 1   
@<TRIPOS>SUBSTRUCTURE
     1 W9G         1 TEMP              0 ****  ****    0 ROOT
