@<TRIPOS>MOLECULE
W9G
   59    59     1     0     0
SMALL
abcg2


@<TRIPOS>ATOM
      1 N1           7.4460    24.6850    16.3060 n7         1 W9G      -0.879400
      2 C4           7.6900    26.0830    14.2910 c6         1 W9G      -0.108400
      3 C5           7.4580    26.0590    15.8010 c6         1 W9G       0.136500
      4 C6           8.7750    24.1320    16.5170 c3         1 W9G       0.154800
      5 C7           8.7040    22.6890    16.9930 c3         1 W9G      -0.080400
      6 C8          10.0730    22.0910    17.3060 c3         1 W9G      -0.073400
      7 C10         12.3700    21.4120    16.4050 c3         1 W9G      -0.074400
      8 C13         13.9360    18.1910    17.9570 c3         1 W9G      -0.113400
      9 C15         15.2530    15.4350    18.1560 c3         1 W9G       0.143900
     10 C17          4.9700    26.1280    15.3410 c6         1 W9G       0.137300
     11 C1           5.2480    26.1160    13.8400 c6         1 W9G       0.165300
     12 C11         12.4310    20.0250    17.0360 c3         1 W9G      -0.075400
     13 C12         13.8590    19.5650    17.2990 c3         1 W9G      -0.074400
     14 C14         15.3790    17.7910    18.2270 c3         1 W9G       0.156600
     15 C16          6.1290    26.7540    16.1080 c6         1 W9G       0.129300
     16 C2           6.5620    25.3870    13.5180 c6         1 W9G       0.207000
     17 C3           6.8540    25.4010    12.0170 c3         1 W9G       0.165600
     18 C9          10.9620    21.9010    16.0790 c3         1 W9G      -0.074400
     19 O1           4.1950    25.4980    13.1420 oh         1 W9G      -0.702000
     20 O2           6.8860    26.7270    11.5450 oh         1 W9G      -0.732000
     21 O3           6.4840    24.0210    13.8630 oh         1 W9G      -0.739000
     22 O4          15.5320    16.5770    18.9240 os         1 W9G      -0.451000
     23 O5           5.7980    26.6960    17.4790 oh         1 W9G      -0.729000
     24 O6           3.7800    26.8690    15.5210 oh         1 W9G      -0.731000
     25 H1           6.9430    24.6690    17.1870 hn         1 W9G       0.431000
     26 H3           8.6440    25.6080    14.0450 hc         1 W9G       0.062200
     27 H4           7.7810    27.1230    13.9680 hc         1 W9G       0.062200
     28 H5           8.2580    26.6420    16.2860 h1         1 W9G       0.029700
     29 H6           9.3480    24.7300    17.2410 h1         1 W9G       0.033200
     30 H7           9.3260    24.1840    15.5750 h1         1 W9G       0.033200
     31 H8           8.0810    22.6450    17.8920 hc         1 W9G       0.049200
     32 H9           8.1970    22.0810    16.2360 hc         1 W9G       0.049200
     33 H10          9.9260    21.1300    17.8040 hc         1 W9G       0.040200
     34 H11         10.5880    22.7320    18.0310 hc         1 W9G       0.040200
     35 H12         12.9660    21.4070    15.4870 hc         1 W9G       0.037200
     36 H13         12.8540    22.1330    17.0740 hc         1 W9G       0.037200
     37 H14         13.3810    18.2040    18.9000 hc         1 W9G       0.046700
     38 H15         13.4450    17.4560    17.3120 hc         1 W9G       0.046700
     39 H16         15.5370    14.5610    18.7410 h1         1 W9G       0.027033
     40 H17         14.1930    15.3380    17.8990 h1         1 W9G       0.027033
     41 H18         15.8260    15.4210    17.2200 h1         1 W9G       0.027033
     42 H19          4.8250    25.0930    15.6840 h1         1 W9G       0.065700
     43 H20          5.3610    27.1640    13.5210 h1         1 W9G       0.052700
     44 H21         11.8760    20.0160    17.9790 hc         1 W9G       0.039700
     45 H22         11.9290    19.3060    16.3800 hc         1 W9G       0.039700
     46 H23         14.4150    19.5510    16.3560 hc         1 W9G       0.037200
     47 H24         14.3620    20.3000    17.9360 hc         1 W9G       0.037200
     48 H25         15.9340    17.7610    17.2760 h1         1 W9G       0.041200
     49 H26         15.8530    18.5570    18.8470 h1         1 W9G       0.041200
     50 H27          6.2290    27.7980    15.7760 h1         1 W9G       0.052700
     51 H28          6.0940    24.8050    11.4980 h1         1 W9G       0.038700
     52 H29          7.8190    24.8980    11.8610 h1         1 W9G       0.038700
     53 H30         11.0460    22.8460    15.5360 hc         1 W9G       0.039700
     54 H31         10.4810    21.1980    15.3900 hc         1 W9G       0.039700
     55 H32          3.3790    25.9410    13.3940 ho         1 W9G       0.514000
     56 H33          7.0920    26.7080    10.6060 ho         1 W9G       0.507000
     57 H34          6.7320    23.9660    14.8140 ho         1 W9G       0.548000
     58 H35          6.3920    27.2760    17.9650 ho         1 W9G       0.508000
     59 H36          3.4850    26.7570    16.4300 ho         1 W9G       0.520000
@<TRIPOS>BOND
     1     1     3 1   
     2     1     4 1   
     3     1    25 1   
     4     2     3 1   
     5     2    16 1   
     6     2    26 1   
     7     2    27 1   
     8     3    15 1   
     9     3    28 1   
    10     4     5 1   
    11     4    29 1   
    12     4    30 1   
    13     5     6 1   
    14     5    31 1   
    15     5    32 1   
    16     6    18 1   
    17     6    33 1   
    18     6    34 1   
    19     7    12 1   
    20     7    18 1   
    21     7    35 1   
    22     7    36 1   
    23     8    13 1   
    24     8    14 1   
    25     8    37 1   
    26     8    38 1   
    27     9    22 1   
    28     9    39 1   
    29     9    40 1   
    30     9    41 1   
    31    10    11 1   
    32    10    15 1   
    33    10    24 1   
    34    10    42 1   
    35    11    16 1   
    36    11    19 1   
    37    11    43 1   
    38    12    13 1   
    39    12    44 1   
    40    12    45 1   
    41    13    46 1   
    42    13    47 1   
    43    14    22 1   
    44    14    48 1   
    45    14    49 1   
    46    15    23 1   
    47    15    50 1   
    48    16    17 1   
    49    16    21 1   
    50    17    20 1   
    51    17    51 1   
    52    17    52 1   
    53    18    53 1   
    54    18    54 1   
    55    19    55 1   
    56    20    56 1   
    57    21    57 1   
    58    23    58 1   
    59    24    59 1   
@<TRIPOS>SUBSTRUCTURE
     1 W9G         1 TEMP              0 ****  ****    0 ROOT
