@<TRIPOS>MOLECULE
W9I
   15    15     1     0     0
SMALL
No Charge or Current Charge


@<TRIPOS>ATOM
      1 N1          -3.9200    13.7640   -33.8390 nu         1 W9I      -0.711900
      2 N2          -4.6040    15.0340   -33.5150 n8         1 W9I      -0.703000
      3 C1          -2.0570    12.3930   -34.6220 ca         1 W9I      -0.220000
      4 C4          -0.0630    13.5280   -35.3350 ca         1 W9I      -0.125900
      5 C3          -0.7060    14.7440   -35.0300 ca         1 W9I       0.417900
      6 C2          -2.6170    13.6500   -34.3460 ca         1 W9I       0.579900
      7 C           -0.7500    12.3230   -35.1280 ca         1 W9I      -0.007000
      8 N           -1.9670    14.8100   -34.5410 nb         1 W9I      -0.756000
      9 H1          -4.3930    12.8570   -33.7000 hn         1 W9I       0.507000
     10 H2          -4.1290    15.5860   -32.7810 hn         1 W9I       0.409000
     11 H3          -4.7260    15.6600   -34.3300 hn         1 W9I       0.409000
     12 H4          -2.6260    11.4850   -34.4460 ha         1 W9I       0.128000
     13 H5          -0.1940    15.6940   -35.1820 h4         1 W9I       0.034100
     14 H6          -0.2850    11.3650   -35.3530 ha         1 W9I       0.133000
     15 Br           1.7240    13.5160   -36.0240 br         1 W9I      -0.094100
@<TRIPOS>BOND
     1     1     2 1   
     2     1     6 1   
     3     1     9 1   
     4     2    10 1   
     5     2    11 1   
     6     3     6 ar  
     7     3     7 ar  
     8     3    12 1   
     9     4     5 ar  
    10     4     7 ar  
    11     4    15 1   
    12     5     8 ar  
    13     5    13 1   
    14     6     8 ar  
    15     7    14 1   
@<TRIPOS>SUBSTRUCTURE
     1 W9I         1 TEMP              0 ****  ****    0 ROOT
