@<TRIPOS>MOLECULE
W9I
   15    15     1     0     0
SMALL
abcg2


@<TRIPOS>ATOM
      1 N1          -3.8530    13.7500   -33.6710 nu         1 W9I      -0.711900
      2 N2          -4.5690    14.9600   -33.5880 n8         1 W9I      -0.703000
      3 C1          -2.0690    12.4180   -34.5870 ca         1 W9I      -0.220000
      4 C4          -0.1170    13.5580   -35.3360 ca         1 W9I      -0.125900
      5 C3          -0.7170    14.7530   -34.9940 ca         1 W9I       0.417900
      6 C2          -2.6110    13.6780   -34.2560 ca         1 W9I       0.579900
      7 C           -0.8080    12.3610   -35.1320 ca         1 W9I      -0.007000
      8 N           -1.9440    14.8160   -34.4640 nb         1 W9I      -0.756000
      9 H1          -4.4460    12.9410   -33.7730 hn         1 W9I       0.507000
     10 H2          -4.1460    15.5320   -32.8650 hn         1 W9I       0.409000
     11 H3          -4.4620    15.4750   -34.4600 hn         1 W9I       0.409000
     12 H4          -2.6420    11.5150   -34.4140 ha         1 W9I       0.128000
     13 H5          -0.2040    15.6950   -35.1480 h4         1 W9I       0.034100
     14 H6          -0.3650    11.4120   -35.3980 ha         1 W9I       0.133000
     15 BR           1.6410    13.5470   -36.0860 br         1 W9I      -0.094100
@<TRIPOS>BOND
     1     1     2 1   
     2     1     6 1   
     3     1     9 1   
     4     2    10 1   
     5     2    11 1   
     6     3     6 ar  
     7     3     7 ar  
     8     3    12 1   
     9     4     5 ar  
    10     4     7 ar  
    11     4    15 1   
    12     5     8 ar  
    13     5    13 1   
    14     6     8 ar  
    15     7    14 1   
@<TRIPOS>SUBSTRUCTURE
     1 W9I         1 TEMP              0 ****  ****    0 ROOT
