@<TRIPOS>MOLECULE
W9J
   23    22     1     0     0
SMALL
No Charge or Current Charge


@<TRIPOS>ATOM
      1 NT          61.8990    61.9540    22.5180 nt         1 W9J      -0.617000
      2 CT          61.4400    62.6810    23.5460 c          1 W9J       0.642100
      3 OT          61.8400    63.8090    23.7640 o          1 W9J      -0.652100
      4 N           60.5030    62.0250    24.2970 ns         1 W9J      -0.467900
      5 CA          59.8170    62.5800    25.4920 c3         1 W9J      -0.046300
      6 CB          58.4700    63.2590    25.1350 c3         1 W9J      -0.061400
      7 CG          58.6040    64.4800    24.2040 c3         1 W9J       0.085600
      8 SD          56.9520    65.2690    23.9280 ss         1 W9J      -0.479000
      9 CE          57.4490    66.6500    22.8020 c3         1 W9J       0.043900
     10 C           59.6230    61.4710    26.5710 c          1 W9J       0.714000
     11 O           59.0690    60.4290    26.2460 o          1 W9J      -0.723500
     12 OXT         60.1010    61.6570    27.6810 o          1 W9J      -0.723500
     13 H1          62.5950    62.3530    21.9070 hn         1 W9J       0.284500
     14 H2          61.5520    61.0210    22.3590 hn         1 W9J       0.284500
     15 H3          60.2740    61.0800    24.0170 hn         1 W9J       0.277500
     16 H4          60.4720    63.3380    25.9410 h1         1 W9J       0.067700
     17 H5          57.9860    63.5820    26.0650 hc         1 W9J       0.059200
     18 H6          57.8020    62.5230    24.6700 hc         1 W9J       0.059200
     19 H7          59.0160    64.1700    23.2350 h1         1 W9J       0.053700
     20 H8          59.2830    65.2170    24.6530 h1         1 W9J       0.053700
     21 H9          56.5650    67.2410    22.5280 h1         1 W9J       0.048033
     22 H10         58.1730    67.3010    23.3080 h1         1 W9J       0.048033
     23 H11         57.9050    66.2430    21.8910 h1         1 W9J       0.048033
@<TRIPOS>BOND
     1     1     2 1   
     2     1    13 1   
     3     1    14 1   
     4     2     3 2   
     5     2     4 1   
     6     4     5 1   
     7     4    15 1   
     8     5     6 1   
     9     5    10 1   
    10     5    16 1   
    11     6     7 1   
    12     6    17 1   
    13     6    18 1   
    14     7     8 1   
    15     7    19 1   
    16     7    20 1   
    17     8     9 1   
    18     9    21 1   
    19     9    22 1   
    20     9    23 1   
    21    10    11 1   
    22    10    12 1   
@<TRIPOS>SUBSTRUCTURE
     1 W9J         1 TEMP              0 ****  ****    0 ROOT
