@<TRIPOS>MOLECULE
W9J
   23    22     1     0     0
SMALL
bcc


@<TRIPOS>ATOM
      1 NT          62.0970    61.5110    22.6550 nt         1 W9J      -0.684000
      2 CT          61.7570    62.1770    23.7990 c          1 W9J       0.776100
      3 OT          62.6050    62.6050    24.5740 o          1 W9J      -0.652100
      4 N           60.4250    62.4100    23.9550 ns         1 W9J      -0.534900
      5 CA          59.9010    62.8100    25.2410 c3         1 W9J      -0.046300
      6 CB          58.4980    63.3920    25.0680 c3         1 W9J      -0.061400
      7 CG          58.4780    64.6220    24.1730 c3         1 W9J       0.037700
      8 SD          56.7960    65.3040    24.1000 ss         1 W9J      -0.383200
      9 CE          57.0800    66.7060    22.9970 c3         1 W9J      -0.004000
     10 C           59.8980    61.6620    26.2910 c          1 W9J       0.924600
     11 O           60.2720    60.5390    25.9120 o          1 W9J      -0.828800
     12 OXT         59.5140    61.9920    27.4300 o          1 W9J      -0.828800
     13 H1          63.0420    61.1710    22.6020 hn         1 W9J       0.284500
     14 H2          61.4190    60.9430    22.1740 hn         1 W9J       0.284500
     15 H3          59.7990    61.8400    23.4060 hn         1 W9J       0.277500
     16 H4          60.5420    63.6070    25.6270 h1         1 W9J       0.067700
     17 H5          58.1170    63.6500    26.0560 hc         1 W9J       0.059200
     18 H6          57.8250    62.6280    24.6620 hc         1 W9J       0.059200
     19 H7          58.8040    64.3790    23.1610 h1         1 W9J       0.053700
     20 H8          59.1540    65.3850    24.5670 h1         1 W9J       0.053700
     21 H9          56.1300    67.2180    22.8560 h1         1 W9J       0.048033
     22 H10         57.7930    67.4080    23.4280 h1         1 W9J       0.048033
     23 H11         57.4440    66.3750    22.0250 h1         1 W9J       0.048033
@<TRIPOS>BOND
     1     1     2 1   
     2     1    13 1   
     3     1    14 1   
     4     2     3 2   
     5     2     4 1   
     6     4     5 1   
     7     4    15 1   
     8     5     6 1   
     9     5    10 1   
    10     5    16 1   
    11     6     7 1   
    12     6    17 1   
    13     6    18 1   
    14     7     8 1   
    15     7    19 1   
    16     7    20 1   
    17     8     9 1   
    18     9    21 1   
    19     9    22 1   
    20     9    23 1   
    21    10    11 1   
    22    10    12 1   
@<TRIPOS>SUBSTRUCTURE
     1 W9J         1 TEMP              0 ****  ****    0 ROOT
