@<TRIPOS>MOLECULE
W9K
   30    32     1     0     0
SMALL
abcg2


@<TRIPOS>ATOM
      1 C01          6.5970     7.2530    17.6820 c5         1 W9K       0.062200
      2 C02          5.7450     6.9790    18.8800 c2         1 W9K      -0.241200
      3 C04          5.7090     7.5960    16.4740 c          1 W9K       0.573000
      4 C05          7.5940     8.4050    17.8790 c6         1 W9K      -0.060400
      5 C06          5.9570     7.4240    20.1280 ce         1 W9K       0.126400
      6 C07          6.8170     5.7160    15.5370 c          1 W9K       0.601600
      7 C10          8.4070     8.2380    19.1500 c6         1 W9K       0.042600
      8 C11          4.9810     7.1790    21.2120 ca         1 W9K      -0.099800
      9 C15          5.3890     6.8490    22.5090 ca         1 W9K      -0.047000
     10 C16          2.6730     7.0290    21.9500 ca         1 W9K      -0.174500
     11 C17          4.4620     6.6030    23.5120 ca         1 W9K      -0.174500
     12 C18          3.0990     6.6900    23.2340 ca         1 W9K       0.148100
     13 S03          7.4970     5.6980    17.1720 ss         1 W9K      -0.298600
     14 N08          5.9360     6.7730    15.4040 ns         1 W9K      -0.482500
     15 O09          4.9130     8.5080    16.4710 o          1 W9K      -0.480000
     16 S12          7.3590     8.3660    20.6300 ss         1 W9K      -0.296600
     17 O13          7.0690     4.9180    14.6660 o          1 W9K      -0.463000
     18 C14          3.6070     7.2710    20.9570 ca         1 W9K      -0.047000
     19 O19          2.1430     6.4630    24.1770 oh         1 W9K      -0.534100
     20 H21          4.8780     6.3550    18.7030 ha         1 W9K       0.201000
     21 H22          8.2610     8.4530    17.0160 hc         1 W9K       0.077200
     22 H23          7.0280     9.3370    17.9210 hc         1 W9K       0.077200
     23 H26          8.9350     7.2840    19.1670 h1         1 W9K       0.084200
     24 H25          9.1410     9.0360    19.2460 h1         1 W9K       0.084200
     25 H28          6.4430     6.7650    22.7350 ha         1 W9K       0.125000
     26 H29          1.6130     7.1100    21.7460 ha         1 W9K       0.125500
     27 H30          4.7920     6.3380    24.5100 ha         1 W9K       0.125500
     28 H24          5.4410     6.9070    14.5300 hn         1 W9K       0.353500
     29 H27          3.2680     7.5550    19.9690 ha         1 W9K       0.125000
     30 H1           2.5570     6.2470    25.0250 ho         1 W9K       0.465000
@<TRIPOS>BOND
     1     1     2 1   
     2     1     3 1   
     3     1     4 1   
     4     1    13 1   
     5     2     5 2   
     6     2    20 1   
     7     3    14 1   
     8     3    15 2   
     9     4     7 1   
    10     4    21 1   
    11     4    22 1   
    12     5     8 1   
    13     5    16 1   
    14     6    13 1   
    15     6    14 1   
    16     6    17 2   
    17     7    16 1   
    18     7    23 1   
    19     7    24 1   
    20     8     9 ar  
    21     8    18 ar  
    22     9    11 ar  
    23     9    25 1   
    24    10    12 ar  
    25    10    18 ar  
    26    10    26 1   
    27    11    12 ar  
    28    11    27 1   
    29    12    19 1   
    30    14    28 1   
    31    18    29 1   
    32    19    30 1   
@<TRIPOS>SUBSTRUCTURE
     1 W9K         1 TEMP              0 ****  ****    0 ROOT
