@<TRIPOS>MOLECULE
W9K
   30    32     1     0     0
SMALL
No Charge or Current Charge


@<TRIPOS>ATOM
      1 C01          6.6000     7.3810    17.6460 c5         1 W9K       0.062200
      2 C02          5.6320     7.1160    18.8140 c2         1 W9K      -0.241200
      3 C04          5.7790     7.6270    16.3380 c          1 W9K       0.573000
      4 C05          7.5990     8.5460    17.8730 c6         1 W9K      -0.060400
      5 C06          5.8980     7.5350    20.0790 ce         1 W9K       0.126400
      6 C07          6.7820     5.5230    15.7680 c          1 W9K       0.601600
      7 C10          8.4210     8.3510    19.1520 c6         1 W9K       0.042600
      8 C11          4.9320     7.2210    21.1740 ca         1 W9K      -0.099800
      9 C15          5.3860     6.6960    22.4020 ca         1 W9K      -0.047000
     10 C16          2.6420     7.1490    22.0220 ca         1 W9K      -0.174500
     11 C17          4.4730     6.3990    23.4300 ca         1 W9K      -0.174500
     12 C18          3.1020     6.6270    23.2390 ca         1 W9K       0.148100
     13 S03          7.4650     5.7350    17.4210 ss         1 W9K      -0.298600
     14 N08          6.0010     6.5890    15.4930 ns         1 W9K      -0.482500
     15 O09          5.0460     8.5650    16.0640 o          1 W9K      -0.480000
     16 S12          7.3500     8.4330    20.6360 ss         1 W9K      -0.296600
     17 O13          6.9780     4.5880    15.0130 o          1 W9K      -0.463000
     18 C14          3.5520     7.4460    20.9920 ca         1 W9K      -0.047000
     19 O19          2.2110     6.3430    24.2300 oh         1 W9K      -0.534100
     20 H21          4.7150     6.5560    18.6250 ha         1 W9K       0.201000
     21 H22          8.2780     8.6200    17.0130 hc         1 W9K       0.077200
     22 H23          7.0590     9.5020    17.9260 hc         1 W9K       0.077200
     23 H26          8.9320     7.3780    19.1420 h1         1 W9K       0.084200
     24 H25          9.1870     9.1340    19.2390 h1         1 W9K       0.084200
     25 H28          6.4460     6.5070    22.5590 ha         1 W9K       0.125000
     26 H29          1.5800     7.3280    21.8760 ha         1 W9K       0.125500
     27 H30          4.8400     5.9930    24.3700 ha         1 W9K       0.125500
     28 H24          5.5390     6.6080    14.5970 hn         1 W9K       0.353500
     29 H27          3.1820     7.8610    20.0560 ha         1 W9K       0.125000
     30 H1           2.7060     5.9900    25.0000 ho         1 W9K       0.465000
@<TRIPOS>BOND
     1     1     2 1   
     2     1     3 1   
     3     1     4 1   
     4     1    13 1   
     5     2     5 2   
     6     2    20 1   
     7     3    14 1   
     8     3    15 2   
     9     4     7 1   
    10     4    21 1   
    11     4    22 1   
    12     5     8 1   
    13     5    16 1   
    14     6    13 1   
    15     6    14 1   
    16     6    17 2   
    17     7    16 1   
    18     7    23 1   
    19     7    24 1   
    20     8     9 ar  
    21     8    18 ar  
    22     9    11 ar  
    23     9    25 1   
    24    10    12 ar  
    25    10    18 ar  
    26    10    26 1   
    27    11    12 ar  
    28    11    27 1   
    29    12    19 1   
    30    14    28 1   
    31    18    29 1   
    32    19    30 1   
@<TRIPOS>SUBSTRUCTURE
     1 W9K         1 TEMP              0 ****  ****    0 ROOT
