@<TRIPOS>MOLECULE
W9L
   30    31     1     0     0
SMALL
No Charge or Current Charge


@<TRIPOS>ATOM
      1 C1           2.2730     0.4880    -0.1530 c          1 W9L       0.660100
      2 N1           0.9980     0.0090     0.0960 ns         1 W9L      -0.181000
      3 O1           2.5450     1.6220    -0.5180 o          1 W9L      -0.622100
      4 C2          -0.2800     0.6380     0.0700 ca         1 W9L      -0.004000
      5 N2           3.2400    -0.4690     0.0420 ns         1 W9L      -0.530900
      6 C3          -1.4550    -0.1620     0.0480 ca         1 W9L      -0.057000
      7 C4          -2.7290     0.4580     0.0370 ca         1 W9L      -0.021000
      8 C5          -2.8340     1.8600     0.0530 ca         1 W9L      -0.121000
      9 C6          -1.6770     2.6500     0.0840 ca         1 W9L      -0.085000
     10 C7          -0.4110     2.0450     0.0960 ca         1 W9L      -0.119000
     11 C8           4.6710    -0.2420    -0.1550 c3         1 W9L       0.119000
     12 C9           5.4880    -1.5060     0.1530 c3         1 W9L      -0.113100
     13 C11         -3.8180    -1.7220    -0.0050 ca         1 W9L      -0.107000
     14 C12         -2.5630    -2.3480     0.0040 ca         1 W9L      -0.110000
     15 C40         -1.3880    -1.5770     0.0290 ca         1 W9L      -0.103000
     16 C80         -3.9010    -0.3220     0.0120 ca         1 W9L      -0.098000
     17 HN1          0.9650    -0.9680     0.3530 hn         1 W9L       0.146000
     18 HN2          2.9320    -1.3850     0.3420 hn         1 W9L       0.307500
     19 H5          -3.8110     2.3380     0.0450 ha         1 W9L       0.115000
     20 H6          -1.7620     3.7340     0.1050 ha         1 W9L       0.115000
     21 H7           0.4610     2.6900     0.1410 ha         1 W9L       0.136000
     22 H8           4.8440     0.0630    -1.1960 h1         1 W9L       0.052200
     23 H8A          4.9970     0.5750     0.5030 h1         1 W9L       0.052200
     24 H9           6.5570    -1.3130    -0.0010 hc         1 W9L       0.042033
     25 H9A          5.3420    -1.8180     1.1940 hc         1 W9L       0.042033
     26 H9B          5.1900    -2.3310    -0.5050 hc         1 W9L       0.042033
     27 H11         -4.7260    -2.3220    -0.0240 ha         1 W9L       0.113000
     28 H12         -2.4980    -3.4340    -0.0110 ha         1 W9L       0.111000
     29 H40         -0.4340    -2.0980     0.0310 ha         1 W9L       0.103000
     30 H80         -4.8770     0.1570     0.0040 ha         1 W9L       0.114000
@<TRIPOS>BOND
     1     1     2 1   
     2     1     3 2   
     3     1     5 1   
     4     2     4 1   
     5     2    17 1   
     6     4     6 ar  
     7     4    10 ar  
     8     5    11 1   
     9     5    18 1   
    10     6     7 ar  
    11     6    15 ar  
    12     7     8 ar  
    13     7    16 ar  
    14     8     9 ar  
    15     8    19 1   
    16     9    10 ar  
    17     9    20 1   
    18    10    21 1   
    19    11    12 1   
    20    11    22 1   
    21    11    23 1   
    22    12    24 1   
    23    12    25 1   
    24    12    26 1   
    25    13    14 ar  
    26    13    16 ar  
    27    13    27 1   
    28    14    15 ar  
    29    14    28 1   
    30    15    29 1   
    31    16    30 1   
@<TRIPOS>SUBSTRUCTURE
     1 W9L         1 TEMP              0 ****  ****    0 ROOT
