@<TRIPOS>MOLECULE
W9L
   30    31     1     0     0
SMALL
bcc


@<TRIPOS>ATOM
      1 C1           2.1660     0.2690    -0.1960 c          1 W9L       0.794100
      2 N1           0.9690    -0.1280     0.3560 ns         1 W9L      -0.507100
      3 O1           2.2840     1.2660    -0.8930 o          1 W9L      -0.622100
      4 C2          -0.2440     0.5580     0.2510 ca         1 W9L       0.088600
      5 N2           3.2030    -0.5420     0.1080 ns         1 W9L      -0.597900
      6 C3          -1.4410    -0.2020     0.0780 ca         1 W9L      -0.057000
      7 C4          -2.6880     0.4790     0.0510 ca         1 W9L      -0.021000
      8 C5          -2.7200     1.8880     0.1500 ca         1 W9L      -0.139000
      9 C6          -1.5550     2.5900     0.2830 ca         1 W9L      -0.103000
     10 C7          -0.3150     1.9280     0.3500 ca         1 W9L      -0.137000
     11 C8           4.5280    -0.3320    -0.4380 c3         1 W9L       0.119000
     12 C9           5.5350    -1.2150     0.2750 c3         1 W9L      -0.113100
     13 C11         -3.8460    -1.6310    -0.2210 ca         1 W9L      -0.125000
     14 C12         -2.6100    -2.3050    -0.2190 ca         1 W9L      -0.128000
     15 C40         -1.4390    -1.6100    -0.0760 ca         1 W9L      -0.121000
     16 C80         -3.8800    -0.2700    -0.0920 ca         1 W9L      -0.116000
     17 HN1          0.9500    -1.0040     0.8520 hn         1 W9L       0.312500
     18 HN2          3.0390    -1.3960     0.6170 hn         1 W9L       0.307500
     19 H5          -3.6740     2.4000     0.1180 ha         1 W9L       0.133000
     20 H6          -1.5750     3.6690     0.3600 ha         1 W9L       0.133000
     21 H7           0.5820     2.5100     0.5000 ha         1 W9L       0.154000
     22 H8           4.5460    -0.5410    -1.5120 h1         1 W9L       0.052200
     23 H8A          4.8060     0.7160    -0.3140 h1         1 W9L       0.052200
     24 H9           6.5340    -1.0350    -0.1210 hc         1 W9L       0.042033
     25 H9A          5.5550    -1.0080     1.3460 hc         1 W9L       0.042033
     26 H9B          5.3110    -2.2730     0.1360 hc         1 W9L       0.042033
     27 H11         -4.7650    -2.1920    -0.3330 ha         1 W9L       0.131000
     28 H12         -2.5840    -3.3800    -0.3400 ha         1 W9L       0.129000
     29 H40         -0.5060    -2.1580    -0.0990 ha         1 W9L       0.121000
     30 H80         -4.8260     0.2580    -0.1040 ha         1 W9L       0.132000
@<TRIPOS>BOND
     1     1     2 1   
     2     1     3 2   
     3     1     5 1   
     4     2     4 1   
     5     2    17 1   
     6     4     6 ar  
     7     4    10 ar  
     8     5    11 1   
     9     5    18 1   
    10     6     7 ar  
    11     6    15 ar  
    12     7     8 ar  
    13     7    16 ar  
    14     8     9 ar  
    15     8    19 1   
    16     9    10 ar  
    17     9    20 1   
    18    10    21 1   
    19    11    12 1   
    20    11    22 1   
    21    11    23 1   
    22    12    24 1   
    23    12    25 1   
    24    12    26 1   
    25    13    14 ar  
    26    13    16 ar  
    27    13    27 1   
    28    14    15 ar  
    29    14    28 1   
    30    15    29 1   
    31    16    30 1   
@<TRIPOS>SUBSTRUCTURE
     1 W9L         1 TEMP              0 ****  ****    0 ROOT
