@<TRIPOS>MOLECULE
W9M
   24    24     1     0     0
SMALL
abcg2


@<TRIPOS>ATOM
      1 C1          -1.8170     0.6400     0.2370 ca         1 W9M       0.147000
      2 C2          -2.2350    -0.6330    -0.1270 ca         1 W9M       0.089000
      3 C3          -0.4700     0.9560     0.2620 ca         1 W9M      -0.164000
      4 CL4         -2.9660     1.8470     0.6790 cl         1 W9M      -0.177000
      5 C5          -1.2810    -1.5750    -0.4790 ca         1 W9M      -0.072000
      6 CL6         -3.9080    -1.0480    -0.1530 cl         1 W9M      -0.174000
      7 C7           0.4900     0.0080    -0.0920 ca         1 W9M       0.007000
      8 C8           0.0670    -1.2680    -0.4720 ca         1 W9M      -0.115000
      9 N9           1.8200     0.4120    -0.1010 ns         1 W9M      -0.166000
     10 C10          2.9060    -0.4000     0.1660 c          1 W9M       0.664100
     11 N11          4.1080     0.2070     0.0340 n          1 W9M      -0.427800
     12 O12          2.7740    -1.5710     0.4950 o          1 W9M      -0.618100
     13 C13          5.3140    -0.4860     0.4360 c3         1 W9M       0.092800
     14 C14          4.2740     1.5400    -0.5100 c3         1 W9M       0.092800
     15 H3          -0.1650     1.9490     0.5670 ha         1 W9M       0.126000
     16 H5          -1.5980    -2.5650    -0.7800 ha         1 W9M       0.133000
     17 H8           0.7750    -2.0230    -0.7740 ha         1 W9M       0.148000
     18 H9           1.9580     1.4110    -0.0740 hn         1 W9M       0.152000
     19 H131         5.8890    -0.8190    -0.4310 h1         1 W9M       0.043367
     20 H132         5.9420     0.1810     1.0260 h1         1 W9M       0.043367
     21 H133         5.0730    -1.3520     1.0430 h1         1 W9M       0.043367
     22 H141         3.6330     1.7070    -1.3750 h1         1 W9M       0.043367
     23 H142         4.0810     2.3220     0.2310 h1         1 W9M       0.043367
     24 H143         5.3010     1.6550    -0.8480 h1         1 W9M       0.043367
@<TRIPOS>BOND
     1     1     2 ar  
     2     1     3 ar  
     3     1     4 1   
     4     2     5 ar  
     5     2     6 1   
     6     3     7 ar  
     7     3    15 1   
     8     5     8 ar  
     9     5    16 1   
    10     7     8 ar  
    11     7     9 1   
    12     8    17 1   
    13     9    10 1   
    14     9    18 1   
    15    10    11 1   
    16    10    12 2   
    17    11    13 1   
    18    11    14 1   
    19    13    19 1   
    20    13    20 1   
    21    13    21 1   
    22    14    22 1   
    23    14    23 1   
    24    14    24 1   
@<TRIPOS>SUBSTRUCTURE
     1 W9M         1 TEMP              0 ****  ****    0 ROOT
