@<TRIPOS>MOLECULE
W9M
   24    24     1     0     0
SMALL
No Charge or Current Charge


@<TRIPOS>ATOM
      1 C1          -1.8540     0.7480    -0.1390 ca         1 W9M       0.147000
      2 C2          -2.3340    -0.5770    -0.1470 ca         1 W9M       0.089000
      3 C3          -0.4700     0.9920    -0.1030 ca         1 W9M      -0.164000
      4 Cl4         -2.9630     2.1190    -0.1730 cl         1 W9M      -0.177000
      5 C5          -1.4230    -1.6450    -0.1200 ca         1 W9M      -0.072000
      6 Cl6         -4.0640    -0.9230    -0.1920 cl         1 W9M      -0.174000
      7 C7           0.4510    -0.0720    -0.0750 ca         1 W9M       0.007000
      8 C8          -0.0390    -1.3980    -0.0840 ca         1 W9M      -0.115000
      9 N9           1.8330     0.2610    -0.0400 ns         1 W9M      -0.166000
     10 C10          2.9860    -0.5140    -0.0080 c          1 W9M       0.664100
     11 N11          4.2010     0.2090     0.0230 n          1 W9M      -0.427800
     12 O12          2.9840    -1.7380    -0.0050 o          1 W9M      -0.618100
     13 C13          5.4930    -0.5150     0.0590 c3         1 W9M       0.092800
     14 C14          4.2360     1.6920     0.0210 c3         1 W9M       0.092800
     15 H3          -0.1150     2.0200    -0.0970 ha         1 W9M       0.126000
     16 H5          -1.7910    -2.6690    -0.1260 ha         1 W9M       0.133000
     17 H8           0.6320    -2.2510    -0.0630 ha         1 W9M       0.148000
     18 H9           2.0080     1.2560    -0.0370 hn         1 W9M       0.152000
     19 H131         5.5850    -1.1510    -0.8310 h1         1 W9M       0.043367
     20 H132         6.3370     0.1860     0.0790 h1         1 W9M       0.043367
     21 H133         5.5390    -1.1460     0.9560 h1         1 W9M       0.043367
     22 H141         3.7550     2.0750    -0.8880 h1         1 W9M       0.043367
     23 H142         3.7070     2.0780     0.9030 h1         1 W9M       0.043367
     24 H143         5.2700     2.0590     0.0480 h1         1 W9M       0.043367
@<TRIPOS>BOND
     1     1     2 ar  
     2     1     3 ar  
     3     1     4 1   
     4     2     5 ar  
     5     2     6 1   
     6     3     7 ar  
     7     3    15 1   
     8     5     8 ar  
     9     5    16 1   
    10     7     8 ar  
    11     7     9 1   
    12     8    17 1   
    13     9    10 1   
    14     9    18 1   
    15    10    11 1   
    16    10    12 2   
    17    11    13 1   
    18    11    14 1   
    19    13    19 1   
    20    13    20 1   
    21    13    21 1   
    22    14    22 1   
    23    14    23 1   
    24    14    24 1   
@<TRIPOS>SUBSTRUCTURE
     1 W9M         1 TEMP              0 ****  ****    0 ROOT
