@<TRIPOS>MOLECULE
W9N
   73    79     1     0     0
SMALL
abcg2


@<TRIPOS>ATOM
      1 N6         -21.5040    14.1780    16.3430 nc         1 W9N      -0.511100
      2 C18        -20.4740    11.4580    16.8930 ca         1 W9N      -0.077000
      3 N5         -21.5470    15.5110    16.4540 na         1 W9N      -0.021100
      4 C14        -21.6970    16.3500    15.2800 c6         1 W9N       0.117300
      5 C13        -20.5370    16.1310    14.3050 c6         1 W9N      -0.104900
      6 C12        -20.8410    16.7870    12.9390 c5         1 W9N       0.110200
      7 C17        -21.3050    12.2120    17.7170 ca         1 W9N      -0.096900
      8 C15        -23.0720    16.1520    14.6370 c6         1 W9N      -0.104900
      9 N3         -21.4670    17.1300    18.2200 nb         1 W9N      -0.188000
     10 C10        -23.1290    16.8290    13.2470 c5         1 W9N       0.110200
     11 C8         -21.3430    14.7190    18.5090 ca         1 W9N      -0.317900
     12 C22        -22.0860    11.5600    18.6690 ca         1 W9N      -0.089000
     13 C7         -21.3860    13.6670    17.5440 cd         1 W9N       0.430500
     14 N1         -21.1550    16.1420    20.3640 nb         1 W9N      -0.224000
     15 C4         -21.4620    15.8900    17.7420 ca         1 W9N       0.132500
     16 C19        -20.4140    10.0820    17.0400 ca         1 W9N      -0.116000
     17 C20        -21.1900     9.4570    18.0030 ca         1 W9N       0.102100
     18 C21        -22.0420    10.1810    18.8360 ca         1 W9N      -0.081300
     19 C2         -21.3250    17.1720    19.5260 ca         1 W9N       0.157900
     20 C24        -20.2600     7.5240    18.9830 ca         1 W9N       0.114100
     21 C25        -20.2690     6.1180    19.0010 ca         1 W9N      -0.118000
     22 C26        -19.4270     5.4080    19.8340 ca         1 W9N      -0.080000
     23 C27        -18.5770     6.1440    20.6510 ca         1 W9N      -0.115200
     24 C28        -18.5640     7.5450    20.6420 ca         1 W9N       0.099400
     25 C29        -19.4160     8.2590    19.7950 ca         1 W9N      -0.131000
     26 C31        -17.1180     6.9330    22.0640 cc         1 W9N       0.422700
     27 C37        -20.7110    21.2350    13.2370 c3         1 W9N      -0.076100
     28 C38        -22.9180    15.8290    12.1020 c5         1 W9N      -0.085900
     29 C39        -21.3890    15.7860    11.9090 c5         1 W9N      -0.085900
     30 C40        -22.8910     9.4940    19.8620 c3         1 W9N      -0.046800
     31 C9         -21.1510    14.9060    19.8840 ca         1 W9N       0.213300
     32 N11        -21.9690    17.6960    13.0950 n          1 W9N      -0.426800
     33 N30        -17.6340     5.7800    21.5780 na         1 W9N      -0.177600
     34 N32        -17.6370     8.0100    21.5410 nd         1 W9N      -0.578100
     35 O23        -21.1450     8.0920    18.1080 os         1 W9N      -0.258200
     36 H1         -19.8600    11.9460    16.1480 ha         1 W9N       0.127000
     37 H2         -21.6400    17.3710    15.6590 h1         1 W9N       0.089700
     38 H3         -20.3560    15.0640    14.1700 hc         1 W9N       0.063450
     39 H4         -19.6300    16.5540    14.7420 hc         1 W9N       0.063450
     40 H5         -19.9620    17.3050    12.5640 h1         1 W9N       0.080700
     41 H6         -20.4290    14.1650    21.7420 hc         1 W9N       0.062700
     42 H7         -21.8790    13.3580    21.1570 hc         1 W9N       0.062700
     43 H8         -20.3300    12.9920    20.4130 hc         1 W9N       0.062700
     44 H9         -23.8320    16.5700    15.3000 hc         1 W9N       0.063450
     45 H10        -23.2870    15.0860    14.5390 hc         1 W9N       0.063450
     46 H11        -24.0490    17.3980    13.1360 h1         1 W9N       0.080700
     47 H12        -22.7650    12.1340    19.2890 ha         1 W9N       0.120000
     48 H13        -19.7640     9.4920    16.4070 ha         1 W9N       0.131000
     49 H14        -21.3320    18.1550    19.9830 h5         1 W9N       0.052100
     50 H15        -20.9500     5.5910    18.3450 ha         1 W9N       0.129000
     51 H16        -19.4400     4.3260    19.8380 ha         1 W9N       0.120000
     52 H17        -19.4000     9.3410    19.7890 ha         1 W9N       0.142000
     53 H18        -16.3440     6.9190    22.8200 h5         1 W9N       0.059800
     54 H19        -16.4930     4.4760    22.7110 h1         1 W9N       0.051367
     55 H20        -18.1240     3.8980    22.3480 h1         1 W9N       0.051367
     56 H21        -16.8790     3.8920    21.0870 h1         1 W9N       0.051367
     57 H22        -19.9430    19.3200    13.8590 hc         1 W9N       0.054200
     58 H23        -20.1880    19.4570    12.1400 hc         1 W9N       0.054200
     59 H24        -19.7180    21.6700    13.1360 hc         1 W9N       0.042367
     60 H25        -21.3430    21.6720    12.4650 hc         1 W9N       0.042367
     61 H26        -21.1090    21.5340    14.2050 hc         1 W9N       0.042367
     62 H27        -23.4090    16.1920    11.1990 hc         1 W9N       0.053700
     63 H28        -23.3470    14.8550    12.3330 hc         1 W9N       0.053700
     64 H29        -20.9680    14.7910    12.0530 hc         1 W9N       0.053700
     65 H30        -21.1210    16.1080    10.9030 hc         1 W9N       0.053700
     66 H31        -22.2820     9.0030    20.6230 hc         1 W9N       0.049700
     67 H32        -23.5370    10.2090    20.3680 hc         1 W9N       0.049700
     68 H33        -23.5250     8.7280    19.4140 hc         1 W9N       0.049700
     69 C16        -20.9260    13.7920    20.8490 c3         1 W9N      -0.157400
     70 C34        -21.9700    19.0340    13.2460 c          1 W9N       0.614100
     71 C33        -17.2660     4.4360    21.9480 c3         1 W9N       0.067900
     72 C35        -20.6260    19.7240    13.1060 c3         1 W9N      -0.153400
     73 O36        -22.9980    19.6600    13.4710 o          1 W9N      -0.599100
@<TRIPOS>BOND
     1     1     3 1   
     2     1    13 2   
     3     2     7 ar  
     4     2    16 ar  
     5     2    36 1   
     6     3     4 1   
     7     3    15 1   
     8     4     5 1   
     9     4     8 1   
    10     4    37 1   
    11     5     6 1   
    12     5    38 1   
    13     5    39 1   
    14     6    29 1   
    15     6    32 1   
    16     6    40 1   
    17     7    12 ar  
    18     7    13 1   
    19     8    10 1   
    20     8    44 1   
    21     8    45 1   
    22     9    15 ar  
    23     9    19 ar  
    24    10    28 1   
    25    10    32 1   
    26    10    46 1   
    27    11    13 1   
    28    11    15 ar  
    29    11    31 ar  
    30    12    18 ar  
    31    12    47 1   
    32    14    19 ar  
    33    14    31 ar  
    34    16    17 ar  
    35    16    48 1   
    36    17    18 ar  
    37    17    35 1   
    38    18    30 1   
    39    19    49 1   
    40    20    21 ar  
    41    20    25 ar  
    42    20    35 1   
    43    21    22 ar  
    44    21    50 1   
    45    22    23 ar  
    46    22    51 1   
    47    23    24 ar  
    48    23    33 1   
    49    24    25 ar  
    50    24    34 1   
    51    25    52 1   
    52    26    33 1   
    53    26    34 2   
    54    26    53 1   
    55    27    59 1   
    56    27    60 1   
    57    27    61 1   
    58    27    72 1   
    59    28    29 1   
    60    28    62 1   
    61    28    63 1   
    62    29    64 1   
    63    29    65 1   
    64    30    66 1   
    65    30    67 1   
    66    30    68 1   
    67    31    69 1   
    68    32    70 1   
    69    33    71 1   
    70    41    69 1   
    71    42    69 1   
    72    43    69 1   
    73    54    71 1   
    74    55    71 1   
    75    56    71 1   
    76    57    72 1   
    77    58    72 1   
    78    70    72 1   
    79    70    73 2   
@<TRIPOS>SUBSTRUCTURE
     1 W9N         1 TEMP              0 ****  ****    0 ROOT
