@<TRIPOS>MOLECULE
W9N
   73    79     1     0     0
SMALL
No Charge or Current Charge


@<TRIPOS>ATOM
      1 N6         -21.5960    13.9910    16.3810 nc         1 W9N      -0.511100
      2 C18        -20.6870    11.3500    17.5980 ca         1 W9N      -0.077000
      3 N5         -21.7070    15.3850    16.3600 na         1 W9N      -0.021100
      4 C14        -21.7450    16.2330    15.1420 c6         1 W9N       0.117300
      5 C13        -20.3440    16.3090    14.4610 c6         1 W9N      -0.104900
      6 C12        -20.4170    16.8170    12.9860 c5         1 W9N       0.110200
      7 C17        -21.5910    12.2830    18.1430 ca         1 W9N      -0.096900
      8 C15        -22.8650    15.7900    14.1530 c6         1 W9N      -0.104900
      9 N3         -21.7520    17.1940    18.0850 nb         1 W9N      -0.188000
     10 C10        -22.7630    16.5080    12.7660 c5         1 W9N       0.110200
     11 C8         -21.6190    14.8670    18.5090 ca         1 W9N      -0.317900
     12 C22        -22.5670    11.8410    19.0590 ca         1 W9N      -0.089000
     13 C7         -21.5810    13.6800    17.6810 cd         1 W9N       0.430500
     14 N1         -21.5200    16.3700    20.3490 nb         1 W9N      -0.224000
     15 C4         -21.7180    15.9210    17.6420 ca         1 W9N       0.132500
     16 C19        -20.7180    10.0080    18.0120 ca         1 W9N      -0.116000
     17 C20        -21.6630     9.5840    18.9650 ca         1 W9N       0.102100
     18 C21        -22.6050    10.4970    19.4820 ca         1 W9N      -0.081300
     19 C2         -21.6690    17.3510    19.4260 ca         1 W9N       0.157900
     20 C24        -20.5680     7.5500    19.6810 ca         1 W9N       0.114100
     21 C25        -20.5410     6.1640    19.3990 ca         1 W9N      -0.118000
     22 C26        -19.4040     5.3920    19.7180 ca         1 W9N      -0.080000
     23 C27        -18.3260     6.0550    20.3220 ca         1 W9N      -0.115200
     24 C28        -18.3430     7.3910    20.6110 ca         1 W9N       0.099400
     25 C29        -19.4610     8.1750    20.3030 ca         1 W9N      -0.131000
     26 C31        -16.4180     6.6720    21.2840 cc         1 W9N       0.422700
     27 C37        -21.0210    21.3160    13.3630 c3         1 W9N      -0.076100
     28 C38        -22.1440    15.6080    11.6640 c5         1 W9N      -0.085900
     29 C39        -20.6080    15.6470    11.9620 c5         1 W9N      -0.085900
     30 C40        -23.6550    10.0440    20.4890 c3         1 W9N      -0.046800
     31 C9         -21.4780    15.0990    19.8910 ca         1 W9N       0.213300
     32 N11        -21.6950    17.5210    12.7760 n          1 W9N      -0.426800
     33 N30        -17.1160     5.5900    20.7430 na         1 W9N      -0.177600
     34 N32        -17.1570     7.8020    21.2160 nd         1 W9N      -0.578100
     35 O23        -21.7010     8.2650    19.3660 os         1 W9N      -0.258200
     36 H1         -19.9540    11.6680    16.8600 ha         1 W9N       0.127000
     37 H2         -22.0010    17.2550    15.4550 h1         1 W9N       0.089700
     38 H3         -19.8400    15.3340    14.4970 hc         1 W9N       0.063450
     39 H4         -19.7110    16.9900    15.0460 hc         1 W9N       0.063450
     40 H5         -19.5270    17.4140    12.7420 h1         1 W9N       0.080700
     41 H6         -20.7130    14.4280    21.8100 hc         1 W9N       0.062700
     42 H7         -22.1550    13.5650    21.2690 hc         1 W9N       0.062700
     43 H8         -20.5720    13.2280    20.5290 hc         1 W9N       0.062700
     44 H9         -23.8420    16.0100    14.6030 hc         1 W9N       0.063450
     45 H10        -22.8400    14.7010    14.0110 hc         1 W9N       0.063450
     46 H11        -23.7430    16.9050    12.4650 h1         1 W9N       0.080700
     47 H12        -23.3030    12.5460    19.4370 ha         1 W9N       0.120000
     48 H13        -20.0120     9.2980    17.5890 ha         1 W9N       0.131000
     49 H14        -21.7000    18.3730    19.8000 h5         1 W9N       0.052100
     50 H15        -21.4010     5.6920    18.9310 ha         1 W9N       0.129000
     51 H16        -19.3710     4.3260    19.5020 ha         1 W9N       0.120000
     52 H17        -19.4720     9.2330    20.5450 ha         1 W9N       0.142000
     53 H18        -15.4200     6.5770    21.6950 h5         1 W9N       0.059800
     54 H19        -15.6780     4.0680    21.0220 h1         1 W9N       0.051367
     55 H20        -17.3810     3.5420    21.1710 h1         1 W9N       0.051367
     56 H21        -16.6910     3.8970    19.5580 h1         1 W9N       0.051367
     57 H22        -20.0200    19.4490    13.9310 hc         1 W9N       0.054200
     58 H23        -20.1120    19.6500    12.2510 hc         1 W9N       0.054200
     59 H24        -20.0950    21.9040    13.3760 hc         1 W9N       0.042367
     60 H25        -21.6540    21.6930    12.5510 hc         1 W9N       0.042367
     61 H26        -21.5420    21.4770    14.3150 hc         1 W9N       0.042367
     62 H27        -22.3510    16.0260    10.6720 hc         1 W9N       0.053700
     63 H28        -22.5510    14.5900    11.6650 hc         1 W9N       0.053700
     64 H29        -20.2420    14.6890    12.3470 hc         1 W9N       0.053700
     65 H30        -20.0470    15.8410    11.0400 hc         1 W9N       0.053700
     66 H31        -23.1830     9.6170    21.3820 hc         1 W9N       0.049700
     67 H32        -24.2920    10.8740    20.8180 hc         1 W9N       0.049700
     68 H33        -24.3080     9.2770    20.0560 hc         1 W9N       0.049700
     69 C16        -21.2180    14.0190    20.9270 c3         1 W9N      -0.157400
     70 C34        -21.9210    18.8720    13.1140 c          1 W9N       0.614100
     71 C33        -16.6900     4.1880    20.6160 c3         1 W9N       0.067900
     72 C35        -20.7040    19.8170    13.1580 c3         1 W9N      -0.153400
     73 O36        -23.0570    19.2800    13.3180 o          1 W9N      -0.599100
@<TRIPOS>BOND
     1     1     3 1   
     2     1    13 2   
     3     2     7 ar  
     4     2    16 ar  
     5     2    36 1   
     6     3     4 1   
     7     3    15 1   
     8     4     5 1   
     9     4     8 1   
    10     4    37 1   
    11     5     6 1   
    12     5    38 1   
    13     5    39 1   
    14     6    29 1   
    15     6    32 1   
    16     6    40 1   
    17     7    12 ar  
    18     7    13 1   
    19     8    10 1   
    20     8    44 1   
    21     8    45 1   
    22     9    15 ar  
    23     9    19 ar  
    24    10    28 1   
    25    10    32 1   
    26    10    46 1   
    27    11    13 1   
    28    11    15 ar  
    29    11    31 ar  
    30    12    18 ar  
    31    12    47 1   
    32    14    19 ar  
    33    14    31 ar  
    34    16    17 ar  
    35    16    48 1   
    36    17    18 ar  
    37    17    35 1   
    38    18    30 1   
    39    19    49 1   
    40    20    21 ar  
    41    20    25 ar  
    42    20    35 1   
    43    21    22 ar  
    44    21    50 1   
    45    22    23 ar  
    46    22    51 1   
    47    23    24 ar  
    48    23    33 1   
    49    24    25 ar  
    50    24    34 1   
    51    25    52 1   
    52    26    33 1   
    53    26    34 2   
    54    26    53 1   
    55    27    59 1   
    56    27    60 1   
    57    27    61 1   
    58    27    72 1   
    59    28    29 1   
    60    28    62 1   
    61    28    63 1   
    62    29    64 1   
    63    29    65 1   
    64    30    66 1   
    65    30    67 1   
    66    30    68 1   
    67    31    69 1   
    68    32    70 1   
    69    33    71 1   
    70    41    69 1   
    71    42    69 1   
    72    43    69 1   
    73    54    71 1   
    74    55    71 1   
    75    56    71 1   
    76    57    72 1   
    77    58    72 1   
    78    70    72 1   
    79    70    73 2   
@<TRIPOS>SUBSTRUCTURE
     1 W9N         1 TEMP              0 ****  ****    0 ROOT
