@<TRIPOS>MOLECULE
W9O
   39    40     1     0     0
SMALL
No Charge or Current Charge


@<TRIPOS>ATOM
      1 N1          29.3170    16.3470    38.7780 n3         1 W9O      -0.518400
      2 C7          26.7350    16.3090    38.8780 c6         1 W9O      -0.044700
      3 C8          28.0900    15.5150    38.8790 c3         1 W9O       0.176800
      4 N2          31.5110    16.3730    38.0770 n7         1 W9O      -0.881400
      5 C9          30.5940    15.6160    38.9530 c5         1 W9O       0.356000
      6 C5          26.4370    16.5370    41.4320 c6         1 W9O      -0.074400
      7 C6          26.6170    17.2870    40.0880 c6         1 W9O      -0.075400
      8 N3          29.5130    17.1690    37.6220 n7         1 W9O      -0.604200
      9 C4          25.2220    15.5800    41.3800 c6         1 W9O      -0.073400
     10 C3          25.3080    14.6090    40.1750 c6         1 W9O      -0.073400
     11 C2          25.4700    15.3830    38.8280 c6         1 W9O      -0.049700
     12 C           23.1480    13.4650    37.7640 c3         1 W9O       0.141100
     13 C10         30.6890    16.6980    36.9110 c5         1 W9O       0.323000
     14 H1          26.7410    16.9140    37.9610 hc         1 W9O       0.056700
     15 H2          28.0800    14.8060    38.0410 h1         1 W9O       0.037200
     16 H3          28.1400    14.9140    39.7960 h1         1 W9O       0.037200
     17 H4          32.2380    15.7230    37.7650 hn         1 W9O       0.421000
     18 H6          30.4880    14.5880    38.5770 h2         1 W9O       0.045200
     19 H7          30.9260    15.6060    40.0000 h2         1 W9O       0.045200
     20 H10         27.3470    15.9720    41.6770 hc         1 W9O       0.035200
     21 H11         26.3000    17.2630    42.2450 hc         1 W9O       0.035200
     22 H12         27.4980    17.9400    40.1420 hc         1 W9O       0.039200
     23 H13         25.7590    17.9550    39.9310 hc         1 W9O       0.039200
     24 H14         29.6660    18.1590    37.8570 hn         1 W9O       0.426000
     25 H15         24.2950    16.1670    41.3110 hc         1 W9O       0.036700
     26 H16         25.1570    15.0080    42.3150 hc         1 W9O       0.036700
     27 H17         24.4070    13.9850    40.1630 hc         1 W9O       0.040700
     28 H18         26.1470    13.9150    40.3190 hc         1 W9O       0.040700
     29 H19         24.5980    16.0410    38.7050 hc         1 W9O       0.056700
     30 H20         22.2560    13.2470    37.1620 h1         1 W9O       0.027033
     31 H21         23.5590    12.5110    38.1220 h1         1 W9O       0.027033
     32 H22         22.8230    14.0550    38.6300 h1         1 W9O       0.027033
     33 H23         24.2970    13.6660    36.0960 hn         1 W9O       0.404000
     34 H25         30.4520    15.7930    36.3320 h2         1 W9O       0.054700
     35 H26         31.1350    17.4720    36.2710 h2         1 W9O       0.054700
     36 C1          25.4730    14.4400    37.5750 c3         1 W9O       0.161800
     37 N           24.1420    14.2020    36.9600 n7         1 W9O      -0.868400
     38 H8          25.9570    13.4900    37.8430 h1         1 W9O       0.041200
     39 H9          26.1110    14.9090    36.8120 h1         1 W9O       0.041200
@<TRIPOS>BOND
     1     1     3 1   
     2     1     5 1   
     3     1     8 1   
     4     2     3 1   
     5     2     7 1   
     6     2    11 1   
     7     2    14 1   
     8     3    15 1   
     9     3    16 1   
    10     4     5 1   
    11     4    13 1   
    12     4    17 1   
    13     5    18 1   
    14     5    19 1   
    15     6     7 1   
    16     6     9 1   
    17     6    20 1   
    18     6    21 1   
    19     7    22 1   
    20     7    23 1   
    21     8    13 1   
    22     8    24 1   
    23     9    10 1   
    24     9    25 1   
    25     9    26 1   
    26    10    11 1   
    27    10    27 1   
    28    10    28 1   
    29    11    29 1   
    30    11    36 1   
    31    12    30 1   
    32    12    31 1   
    33    12    32 1   
    34    12    37 1   
    35    13    34 1   
    36    13    35 1   
    37    33    37 1   
    38    36    37 1   
    39    36    38 1   
    40    36    39 1   
@<TRIPOS>SUBSTRUCTURE
     1 W9O         1 TEMP              0 ****  ****    0 ROOT
