@<TRIPOS>MOLECULE
W9O
   39    40     1     0     0
SMALL
abcg2


@<TRIPOS>ATOM
      1 N1          28.8280    16.2060    38.1500 n3         1 W9O      -0.518400
      2 C7          26.7550    16.6560    39.5500 c6         1 W9O      -0.044700
      3 C8          28.2340    16.2400    39.4890 c3         1 W9O       0.176800
      4 N2          30.9300    15.8020    37.2420 n7         1 W9O      -0.881400
      5 C9          30.2120    16.7410    38.1050 c5         1 W9O       0.356000
      6 C5          26.2770    15.6320    41.8430 c6         1 W9O      -0.074400
      7 C6          26.3670    16.9210    41.0180 c6         1 W9O      -0.075400
      8 N3          28.8860    14.8540    37.6240 n7         1 W9O      -0.604200
      9 C4          25.3240    14.6210    41.2000 c6         1 W9O      -0.073400
     10 C3          25.6640    14.3750    39.7280 c6         1 W9O      -0.073400
     11 C2          25.7120    15.6910    38.9410 c6         1 W9O      -0.049700
     12 C           23.5440    14.7200    36.9550 c3         1 W9O       0.141100
     13 C10         30.3000    14.5220    37.5950 c5         1 W9O       0.323000
     14 H1          26.6820    17.6030    39.0020 hc         1 W9O       0.056700
     15 H2          28.3980    15.2770    39.9830 h1         1 W9O       0.037200
     16 H3          28.7820    16.9870    40.0690 h1         1 W9O       0.037200
     17 H4          31.9200    15.8060    37.4650 hn         1 W9O       0.421000
     18 H6          30.6360    16.7800    39.1210 h2         1 W9O       0.045200
     19 H7          30.2290    17.7470    37.6830 h2         1 W9O       0.045200
     20 H10         27.2700    15.1840    41.9390 hc         1 W9O       0.035200
     21 H11         25.9440    15.8680    42.8580 hc         1 W9O       0.035200
     22 H12         27.0840    17.6090    41.4750 hc         1 W9O       0.039200
     23 H13         25.3940    17.4200    41.0350 hc         1 W9O       0.039200
     24 H14         28.5580    14.9120    36.6640 hn         1 W9O       0.426000
     25 H15         24.3000    15.0060    41.2640 hc         1 W9O       0.036700
     26 H16         25.3420    13.6800    41.7570 hc         1 W9O       0.036700
     27 H17         24.9240    13.7050    39.2830 hc         1 W9O       0.040700
     28 H18         26.6290    13.8660    39.6480 hc         1 W9O       0.040700
     29 H19         24.7490    16.1900    39.1000 hc         1 W9O       0.056700
     30 H20         22.6830    14.9040    36.3100 h1         1 W9O       0.027033
     31 H21         23.9140    13.7010    36.7580 h1         1 W9O       0.027033
     32 H22         23.1980    14.7520    37.9900 h1         1 W9O       0.027033
     33 H23         24.7380    15.8040    35.7330 hn         1 W9O       0.404000
     34 H25         30.6100    14.1660    38.5870 h2         1 W9O       0.054700
     35 H26         30.5010    13.7480    36.8540 h2         1 W9O       0.054700
     36 C1          25.8240    15.4970    37.4170 c3         1 W9O       0.161800
     37 N           24.5520    15.7520    36.7280 n7         1 W9O      -0.868400
     38 H8          26.1960    14.4840    37.2030 h1         1 W9O       0.041200
     39 H9          26.5510    16.1980    37.0090 h1         1 W9O       0.041200
@<TRIPOS>BOND
     1     1     3 1   
     2     1     5 1   
     3     1     8 1   
     4     2     3 1   
     5     2     7 1   
     6     2    11 1   
     7     2    14 1   
     8     3    15 1   
     9     3    16 1   
    10     4     5 1   
    11     4    13 1   
    12     4    17 1   
    13     5    18 1   
    14     5    19 1   
    15     6     7 1   
    16     6     9 1   
    17     6    20 1   
    18     6    21 1   
    19     7    22 1   
    20     7    23 1   
    21     8    13 1   
    22     8    24 1   
    23     9    10 1   
    24     9    25 1   
    25     9    26 1   
    26    10    11 1   
    27    10    27 1   
    28    10    28 1   
    29    11    29 1   
    30    11    36 1   
    31    12    30 1   
    32    12    31 1   
    33    12    32 1   
    34    12    37 1   
    35    13    34 1   
    36    13    35 1   
    37    33    37 1   
    38    36    37 1   
    39    36    38 1   
    40    36    39 1   
@<TRIPOS>SUBSTRUCTURE
     1 W9O         1 TEMP              0 ****  ****    0 ROOT
