@<TRIPOS>MOLECULE
W9P
   65    67     1     0     0
SMALL
bcc


@<TRIPOS>ATOM
      1 N1          12.1310    22.3200    13.3190 n7         1 W9P      -0.829200
      2 N3          19.3090    25.1310    14.5460 no         1 W9P       0.321200
      3 C4           9.9200    22.9150    12.4250 c6         1 W9P       0.105100
      4 C5          11.0650    23.3210    13.3560 c6         1 W9P       0.137500
      5 C6          11.5900    24.6900    12.9230 c6         1 W9P      -0.109400
      6 C7          12.6420    26.0660    11.0970 c3         1 W9P       0.144400
      7 C8          13.0220    22.3670    14.4690 c3         1 W9P       0.151800
      8 C10         15.0810    21.3930    15.5490 c3         1 W9P      -0.082400
      9 C13         17.8640    22.4190    14.4180 c3         1 W9P       0.211800
     10 C15         16.3460    25.0280    12.2680 ca         1 W9P      -0.221000
     11 C17         17.8370    26.7890    11.6250 ca         1 W9P      -0.080200
     12 C20         17.9120    28.0430     9.4790 cc         1 W9P       0.386400
     13 C1          12.0860    24.6920    11.4720 c6         1 W9P       0.181800
     14 C11         16.3500    20.5620    15.3830 c3         1 W9P      -0.072400
     15 C12         17.3140    21.0000    14.2780 c3         1 W9P      -0.098400
     16 C14         17.2480    24.5550    13.2490 ca         1 W9P       0.270600
     17 C16         16.6190    26.1190    11.4880 ca         1 W9P      -0.044000
     18 C18         18.7320    26.3930    12.5880 ca         1 W9P      -0.004000
     19 C19         18.4180    25.3250    13.4250 ca         1 W9P      -0.262200
     20 C2          10.9080    24.2940    10.5680 c6         1 W9P       0.144100
     21 C3          10.3400    22.9310    10.9590 c6         1 W9P       0.115100
     22 C9          14.1240    21.3290    14.3610 c3         1 W9P      -0.084400
     23 N2          16.9340    23.4120    13.8970 nu         1 W9P      -0.735600
     24 N4          18.1340    27.8870    10.7880 na         1 W9P       0.024500
     25 N5          18.7200    28.9910    11.2390 nc         1 W9P      -0.198800
     26 N6          18.8470    29.7710    10.2410 nd         1 W9P      -0.041000
     27 N7          18.3530    29.2210     9.1310 nd         1 W9P      -0.380000
     28 O1          11.3370    24.2970     9.2300 oh         1 W9P      -0.581800
     29 O2           9.2330    22.6960    10.1130 oh         1 W9P      -0.606800
     30 O3           9.4370    21.6180    12.7050 oh         1 W9P      -0.606800
     31 O4          11.6170    27.0290    11.1330 oh         1 W9P      -0.603800
     32 O5          13.1710    23.7990    11.3100 oh         1 W9P      -0.631800
     33 O6          20.4920    25.3260    14.3790 o          1 W9P      -0.209500
     34 O7          18.8150    24.8430    15.6130 o          1 W9P      -0.209500
     35 H1          11.7100    21.3970    13.2710 hn         1 W9P       0.379800
     36 H3           9.1230    23.6610    12.5540 h1         1 W9P       0.054700
     37 H4          10.6520    23.4100    14.3740 h1         1 W9P       0.034700
     38 H5          12.4000    25.0150    13.5820 hc         1 W9P       0.064700
     39 H6          10.7920    25.4250    13.0460 hc         1 W9P       0.064700
     40 H7          13.1070    26.0050    10.1050 h1         1 W9P       0.033200
     41 H8          13.4410    26.3050    11.8130 h1         1 W9P       0.033200
     42 H9          13.4800    23.3580    14.5180 h1         1 W9P       0.036700
     43 H10         12.4700    22.2350    15.4110 h1         1 W9P       0.036700
     44 H11         15.3470    22.4340    15.7600 hc         1 W9P       0.049200
     45 H12         14.5530    21.0450    16.4410 hc         1 W9P       0.049200
     46 H13         18.0970    22.6070    15.4680 h1         1 W9P       0.064200
     47 H14         18.8030    22.4890    13.8610 h1         1 W9P       0.064200
     48 H16         17.4560    27.3020     8.8430 h5         1 W9P       0.078100
     49 H17         16.0750    19.5180    15.2030 hc         1 W9P       0.047200
     50 H18         16.8960    20.5700    16.3310 hc         1 W9P       0.047200
     51 H19         16.8730    20.8700    13.2850 hc         1 W9P       0.052700
     52 H20         18.1730    20.3260    14.3030 hc         1 W9P       0.052700
     53 H21         15.8880    26.4460    10.7590 ha         1 W9P       0.150000
     54 H22         19.6610    26.9290    12.7250 ha         1 W9P       0.186000
     55 H23         10.1080    25.0330    10.7220 h1         1 W9P       0.055700
     56 H24         11.1090    22.1620    10.7940 h1         1 W9P       0.063700
     57 H25         13.6910    20.3250    14.2970 hc         1 W9P       0.044700
     58 H26         14.6520    21.4800    13.4140 hc         1 W9P       0.044700
     59 H27         16.0540    23.0270    13.5910 hn         1 W9P       0.431800
     60 H28         10.5940    24.0220     8.6820 ho         1 W9P       0.419000
     61 H29          8.9450    21.7860    10.2350 ho         1 W9P       0.423000
     62 H30          8.9570    21.6410    13.5390 ho         1 W9P       0.411000
     63 H31         11.9890    27.8750    10.8700 ho         1 W9P       0.412000
     64 H32         12.9950    23.0450    11.9180 ho         1 W9P       0.449000
     65 H15         15.4110    24.5000    12.1200 ha         1 W9P       0.169000
@<TRIPOS>BOND
     1     1     4 1   
     2     1     7 1   
     3     1    35 1   
     4     2    19 1   
     5     2    33 1   
     6     2    34 1   
     7     3     4 1   
     8     3    21 1   
     9     3    30 1   
    10     3    36 1   
    11     4     5 1   
    12     4    37 1   
    13     5    13 1   
    14     5    38 1   
    15     5    39 1   
    16     6    13 1   
    17     6    31 1   
    18     6    40 1   
    19     6    41 1   
    20     7    22 1   
    21     7    42 1   
    22     7    43 1   
    23     8    14 1   
    24     8    22 1   
    25     8    44 1   
    26     8    45 1   
    27     9    15 1   
    28     9    23 1   
    29     9    46 1   
    30     9    47 1   
    31    10    16 ar  
    32    10    17 ar  
    33    10    65 1   
    34    11    17 ar  
    35    11    18 ar  
    36    11    24 1   
    37    12    24 1   
    38    12    27 2   
    39    12    48 1   
    40    13    20 1   
    41    13    32 1   
    42    14    15 1   
    43    14    49 1   
    44    14    50 1   
    45    15    51 1   
    46    15    52 1   
    47    16    19 ar  
    48    16    23 1   
    49    17    53 1   
    50    18    19 ar  
    51    18    54 1   
    52    20    21 1   
    53    20    28 1   
    54    20    55 1   
    55    21    29 1   
    56    21    56 1   
    57    22    57 1   
    58    22    58 1   
    59    23    59 1   
    60    24    25 1   
    61    25    26 2   
    62    26    27 1   
    63    28    60 1   
    64    29    61 1   
    65    30    62 1   
    66    31    63 1   
    67    32    64 1   
@<TRIPOS>SUBSTRUCTURE
     1 W9P         1 TEMP              0 ****  ****    0 ROOT
