@<TRIPOS>MOLECULE
W9P
   65    67     1     0     0
SMALL
No Charge or Current Charge


@<TRIPOS>ATOM
      1 N1          12.2060    22.5120    13.7960 n7         1 W9P      -0.884400
      2 N3          16.8190    25.0360    14.7730 no         1 W9P       0.701200
      3 C4          10.1410    23.4610    12.7060 c6         1 W9P       0.128300
      4 C5          11.3710    23.7320    13.6380 c6         1 W9P       0.137500
      5 C6          12.2050    24.9150    13.0680 c6         1 W9P      -0.109400
      6 C7          13.5940    25.8290    11.1030 c3         1 W9P       0.167600
      7 C8          13.2110    22.5040    14.8770 c3         1 W9P       0.151800
      8 C10         15.4240    21.4260    15.5890 c3         1 W9P      -0.082400
      9 C13         17.7630    21.9890    13.4860 c3         1 W9P       0.211800
     10 C15         16.9920    24.3530    11.0800 ca         1 W9P      -0.203000
     11 C17         17.1990    26.7570    11.4320 ca         1 W9P      -0.080200
     12 C20         18.1200    28.4280     9.8800 cc         1 W9P       0.386400
     13 C1          12.7240    24.6270    11.6280 c6         1 W9P       0.205000
     14 C11         16.5690    20.4410    15.2470 c3         1 W9P      -0.072400
     15 C12         17.2060    20.5860    13.8350 c3         1 W9P      -0.098400
     16 C14         16.9060    24.1420    12.4610 ca         1 W9P       0.409000
     17 C16         17.1460    25.6500    10.5610 ca         1 W9P      -0.026000
     18 C18         17.1050    26.5430    12.8230 ca         1 W9P       0.014000
     19 C19         16.9640    25.2360    13.3300 ca         1 W9P      -0.262200
     20 C2          11.4800    24.3490    10.6920 c6         1 W9P       0.167300
     21 C3          10.6120    23.1770    11.2470 c6         1 W9P       0.138300
     22 C9          14.1800    21.3260    14.6740 c3         1 W9P      -0.084400
     23 N2          16.7100    22.8490    12.9220 nu         1 W9P      -0.929200
     24 N4          17.3230    28.0530    10.9250 na         1 W9P       0.024500
     25 N5          16.5450    29.0630    11.3670 nc         1 W9P      -0.198800
     26 N6          16.9000    30.0700    10.6100 nd         1 W9P      -0.041000
     27 N7          17.8630    29.7100     9.6830 nd         1 W9P      -0.380000
     28 O1          11.8390    24.0400     9.3280 oh         1 W9P      -0.704000
     29 O2           9.4680    22.9440    10.4020 oh         1 W9P      -0.729000
     30 O3           9.3490    22.3500    13.1830 oh         1 W9P      -0.729000
     31 O4          12.8730    27.0760    11.0130 oh         1 W9P      -0.726000
     32 O5          13.5590    23.4610    11.7320 oh         1 W9P      -0.754000
     33 O6          17.8540    24.8220    15.4130 o          1 W9P      -0.399500
     34 O7          15.7670    25.4360    15.2860 o          1 W9P      -0.399500
     35 H1          11.5670    21.7170    13.9560 hn         1 W9P       0.435000
     36 H3           9.5250    24.3740    12.6910 h1         1 W9P       0.054700
     37 H4          10.9880    24.0220    14.6290 h1         1 W9P       0.034700
     38 H5          13.0450    25.1540    13.7330 hc         1 W9P       0.064700
     39 H6          11.5780    25.8170    13.0600 hc         1 W9P       0.064700
     40 H7          14.0020    25.5600    10.1190 h1         1 W9P       0.033200
     41 H8          14.4480    25.9480    11.7830 h1         1 W9P       0.033200
     42 H9          13.7990    23.4300    14.8580 h1         1 W9P       0.036700
     43 H10         12.7330    22.4330    15.8630 h1         1 W9P       0.036700
     44 H11         15.8200    22.4480    15.5590 hc         1 W9P       0.049200
     45 H12         15.1100    21.2560    16.6260 hc         1 W9P       0.049200
     46 H13         18.2160    22.4400    14.3790 h1         1 W9P       0.064200
     47 H14         18.5610    21.8690    12.7400 h1         1 W9P       0.064200
     48 H16         18.8100    27.7810     9.3540 h5         1 W9P       0.078100
     49 H17         16.1980    19.4150    15.3610 hc         1 W9P       0.047200
     50 H18         17.3600    20.5640    15.9970 hc         1 W9P       0.047200
     51 H19         16.5030    20.2550    13.0620 hc         1 W9P       0.052700
     52 H20         18.0440    19.8800    13.7880 hc         1 W9P       0.052700
     53 H21         17.2010    25.7890     9.4830 ha         1 W9P       0.132000
     54 H22         17.1360    27.3900    13.5080 ha         1 W9P       0.168000
     55 H23         10.8510    25.2530    10.7000 h1         1 W9P       0.055700
     56 H24         11.2360    22.2700    11.2670 h1         1 W9P       0.063700
     57 H25         13.6590    20.3790    14.8590 hc         1 W9P       0.044700
     58 H26         14.4940    21.3150    13.6250 hc         1 W9P       0.044700
     59 H27         16.0220    22.3510    12.3580 hn         1 W9P       0.487000
     60 H28         11.0600    23.5320     8.9960 ho         1 W9P       0.518000
     61 H29          8.8460    22.4370    10.9810 ho         1 W9P       0.522000
     62 H30          9.0410    22.5830    14.0900 ho         1 W9P       0.510000
     63 H31         13.5190    27.7590    10.7150 ho         1 W9P       0.511000
     64 H32         13.1550    22.9920    12.5310 ho         1 W9P       0.548000
     65 H15         16.9340    23.5060    10.4030 ha         1 W9P       0.151000
@<TRIPOS>BOND
     1     1     4 1   
     2     1     7 1   
     3     1    35 1   
     4     2    19 1   
     5     2    33 1   
     6     2    34 1   
     7     3     4 1   
     8     3    21 1   
     9     3    30 1   
    10     3    36 1   
    11     4     5 1   
    12     4    37 1   
    13     5    13 1   
    14     5    38 1   
    15     5    39 1   
    16     6    13 1   
    17     6    31 1   
    18     6    40 1   
    19     6    41 1   
    20     7    22 1   
    21     7    42 1   
    22     7    43 1   
    23     8    14 1   
    24     8    22 1   
    25     8    44 1   
    26     8    45 1   
    27     9    15 1   
    28     9    23 1   
    29     9    46 1   
    30     9    47 1   
    31    10    16 ar  
    32    10    17 ar  
    33    10    65 1   
    34    11    17 ar  
    35    11    18 ar  
    36    11    24 1   
    37    12    24 1   
    38    12    27 2   
    39    12    48 1   
    40    13    20 1   
    41    13    32 1   
    42    14    15 1   
    43    14    49 1   
    44    14    50 1   
    45    15    51 1   
    46    15    52 1   
    47    16    19 ar  
    48    16    23 1   
    49    17    53 1   
    50    18    19 ar  
    51    18    54 1   
    52    20    21 1   
    53    20    28 1   
    54    20    55 1   
    55    21    29 1   
    56    21    56 1   
    57    22    57 1   
    58    22    58 1   
    59    23    59 1   
    60    24    25 1   
    61    25    26 2   
    62    26    27 1   
    63    28    60 1   
    64    29    61 1   
    65    30    62 1   
    66    31    63 1   
    67    32    64 1   
@<TRIPOS>SUBSTRUCTURE
     1 W9P         1 TEMP              0 ****  ****    0 ROOT
