@<TRIPOS>MOLECULE
W9Q
   36    39     1     0     0
SMALL
No Charge or Current Charge


@<TRIPOS>ATOM
      1 C01          6.6540     6.4530    18.4940 c5         1 W9Q      -0.150000
      2 C02          5.6550     7.3600    17.6760 c5         1 W9Q      -0.035700
      3 C04          6.8110     7.0480    19.8860 ce         1 W9Q       0.371900
      4 C05          5.5340     6.8240    16.1990 c5         1 W9Q      -0.185700
      5 C06          6.5060     8.6280    17.3930 c5         1 W9Q      -0.095400
      6 C07          7.6880     7.8410    16.7650 c5         1 W9Q      -0.081700
      7 O08          8.7980     7.4250    18.9190 os         1 W9Q      -0.310000
      8 C11          6.9810     7.0420    15.6090 c5         1 W9Q      -0.059700
      9 C13          5.9310     7.8140    22.1360 ca         1 W9Q      -0.073500
     10 C15          6.9700     7.7800    14.2510 c3         1 W9Q      -0.071100
     11 C18          4.9420     7.8170    23.1350 ca         1 W9Q      -0.117500
     12 C19          3.5780     6.3190    21.7950 ca         1 W9Q      -0.117500
     13 C20          3.7660     7.0720    22.9630 ca         1 W9Q       0.124000
     14 C03          8.0340     6.7820    17.8710 c5         1 W9Q       0.125300
     15 C09          5.7490     7.0700    20.9460 ca         1 W9Q      -0.110900
     16 N10          8.0040     7.5140    20.0800 n2         1 W9Q      -0.295700
     17 C12          5.0170     5.3540    16.0670 c          1 W9Q       0.710000
     18 C14          4.5640     6.3130    20.7930 ca         1 W9Q      -0.073500
     19 O16          3.9160     5.1780    15.5670 o          1 W9Q      -0.734500
     20 O17          5.7270     4.4100    16.3790 o          1 W9Q      -0.734500
     21 H22          6.4200     5.3870    18.5390 hc         1 W9Q       0.116700
     22 H23          4.6910     7.5510    18.1630 hc         1 W9Q       0.076700
     23 H25          4.7990     7.4630    15.6930 hc         1 W9Q       0.041700
     24 H27          6.0290     9.3280    16.6960 hc         1 W9Q       0.041200
     25 H26          6.7770     9.2000    18.2870 hc         1 W9Q       0.041200
     26 H28          8.5410     8.4490    16.4430 hc         1 W9Q       0.058700
     27 H29          7.4970     6.0920    15.4240 hc         1 W9Q       0.079700
     28 H33          7.9910     7.9380    13.8830 hc         1 W9Q       0.021033
     29 H32          6.4300     7.1990    13.4940 hc         1 W9Q       0.021033
     30 H34          6.4870     8.7620    14.3270 hc         1 W9Q       0.021033
     31 H36          5.0880     8.3960    24.0440 ha         1 W9Q       0.126000
     32 H37          2.6690     5.7370    21.6670 ha         1 W9Q       0.126000
     33 H24          8.5780     5.9050    17.4930 h1         1 W9Q       0.079700
     34 H31          4.4000     5.7140    19.9000 ha         1 W9Q       0.150000
     35 Cl21         2.5320     7.0760    24.2160 cl         1 W9Q      -0.238000
     36 H30          6.8370     8.3980    22.2890 ha         1 W9Q       0.150000
@<TRIPOS>BOND
     1     1     2 1   
     2     1     3 1   
     3     1    14 1   
     4     1    21 1   
     5     2     4 1   
     6     2     5 1   
     7     2    22 1   
     8     3    15 1   
     9     3    16 2   
    10     4     8 1   
    11     4    17 1   
    12     4    23 1   
    13     5     6 1   
    14     5    24 1   
    15     5    25 1   
    16     6     8 1   
    17     6    14 1   
    18     6    26 1   
    19     7    14 1   
    20     7    16 1   
    21     8    10 1   
    22     8    27 1   
    23     9    11 ar  
    24     9    15 ar  
    25     9    36 1   
    26    10    28 1   
    27    10    29 1   
    28    10    30 1   
    29    11    13 ar  
    30    11    31 1   
    31    12    13 ar  
    32    12    18 ar  
    33    12    32 1   
    34    13    35 1   
    35    14    33 1   
    36    15    18 ar  
    37    17    19 1   
    38    17    20 1   
    39    18    34 1   
@<TRIPOS>SUBSTRUCTURE
     1 W9Q         1 TEMP              0 ****  ****    0 ROOT
