@<TRIPOS>MOLECULE
W9Q
   36    39     1     0     0
SMALL
abcg2


@<TRIPOS>ATOM
      1 C01          6.5980     6.6490    18.4950 c5         1 W9Q      -0.150000
      2 C02          5.6590     7.5010    17.6010 c5         1 W9Q      -0.035700
      3 C04          6.7730     7.1570    19.8980 ce         1 W9Q       0.371900
      4 C05          5.5770     6.7940    16.2300 c5         1 W9Q      -0.185700
      5 C06          6.5490     8.7080    17.2690 c5         1 W9Q      -0.095400
      6 C07          7.7090     7.8580    16.7210 c5         1 W9Q      -0.081700
      7 O08          8.7200     7.6090    18.9770 os         1 W9Q      -0.310000
      8 C11          7.0090     6.9860    15.6460 c5         1 W9Q      -0.059700
      9 C13          5.9280     7.6850    22.1910 ca         1 W9Q      -0.073500
     10 C15          7.0150     7.6240    14.2620 c3         1 W9Q      -0.071100
     11 C18          4.9460     7.6130    23.1640 ca         1 W9Q      -0.117500
     12 C19          3.5470     6.3460    21.6490 ca         1 W9Q      -0.117500
     13 C20          3.7600     6.9420    22.8820 ca         1 W9Q       0.124000
     14 C03          7.9940     6.9320    17.9020 c5         1 W9Q       0.125300
     15 C09          5.7410     7.0920    20.9340 ca         1 W9Q      -0.110900
     16 N10          7.9240     7.6720    20.1230 n2         1 W9Q      -0.295700
     17 C12          5.0330     5.3530    16.2990 c          1 W9Q       0.710000
     18 C14          4.5390     6.4250    20.6790 ca         1 W9Q      -0.073500
     19 O16          3.9710     5.1980    16.9610 o          1 W9Q      -0.734500
     20 O17          5.6560     4.4450    15.6930 o          1 W9Q      -0.734500
     21 H22          6.3160     5.5970    18.4950 hc         1 W9Q       0.116700
     22 H23          4.6930     7.7120    18.0490 hc         1 W9Q       0.076700
     23 H25          4.8610     7.3500    15.6150 hc         1 W9Q       0.041700
     24 H27          6.1050     9.3590    16.5160 hc         1 W9Q       0.041200
     25 H26          6.8210     9.3090    18.1370 hc         1 W9Q       0.041200
     26 H28          8.5900     8.3860    16.3600 hc         1 W9Q       0.058700
     27 H29          7.4940     6.0120    15.5790 hc         1 W9Q       0.079700
     28 H33          8.0330     7.7170    13.8740 hc         1 W9Q       0.021033
     29 H32          6.4390     7.0180    13.5590 hc         1 W9Q       0.021033
     30 H34          6.5690     8.6220    14.2830 hc         1 W9Q       0.021033
     31 H36          5.0960     8.0720    24.1310 ha         1 W9Q       0.126000
     32 H37          2.6190     5.8290    21.4440 ha         1 W9Q       0.126000
     33 H24          8.5720     6.0490    17.6320 h1         1 W9Q       0.079700
     34 H31          4.3660     5.9600    19.7180 ha         1 W9Q       0.150000
     35 CL21         2.5160     6.8540    24.1080 cl         1 W9Q      -0.238000
     36 H30          6.8500     8.2070    22.4040 ha         1 W9Q       0.150000
@<TRIPOS>BOND
     1     1     2 1   
     2     1     3 1   
     3     1    14 1   
     4     1    21 1   
     5     2     4 1   
     6     2     5 1   
     7     2    22 1   
     8     3    15 1   
     9     3    16 2   
    10     4     8 1   
    11     4    17 1   
    12     4    23 1   
    13     5     6 1   
    14     5    24 1   
    15     5    25 1   
    16     6     8 1   
    17     6    14 1   
    18     6    26 1   
    19     7    14 1   
    20     7    16 1   
    21     8    10 1   
    22     8    27 1   
    23     9    11 ar  
    24     9    15 ar  
    25     9    36 1   
    26    10    28 1   
    27    10    29 1   
    28    10    30 1   
    29    11    13 ar  
    30    11    31 1   
    31    12    13 ar  
    32    12    18 ar  
    33    12    32 1   
    34    13    35 1   
    35    14    33 1   
    36    15    18 ar  
    37    17    19 1   
    38    17    20 1   
    39    18    34 1   
@<TRIPOS>SUBSTRUCTURE
     1 W9Q         1 TEMP              0 ****  ****    0 ROOT
