@<TRIPOS>MOLECULE
W9S
   28    28     1     0     0
SMALL
No Charge or Current Charge


@<TRIPOS>ATOM
      1 N1          14.9260    21.9550   -14.3870 n8         1 W9S      -0.987200
      2 C4          15.9260    19.6840   -13.8380 c6         1 W9S       0.189300
      3 C5          14.7440    19.1190   -13.0010 c6         1 W9S       0.140300
      4 C6          14.9570    19.4180   -11.4870 c6         1 W9S       0.110300
      5 C1          15.0620    20.9630   -11.2120 c6         1 W9S       0.174000
      6 C2          16.1160    21.6350   -12.1660 c6         1 W9S      -0.067400
      7 C3          16.0170    21.2400   -13.6720 c6         1 W9S       0.178500
      8 O1          13.8620    18.8370   -10.7360 oh         1 W9S      -0.739000
      9 O3          13.7600    21.5310   -11.4180 oh         1 W9S      -0.698000
     10 O4          14.6140    17.6960   -13.2010 oh         1 W9S      -0.739000
     11 O5          15.7520    19.2950   -15.2150 oh         1 W9S      -0.722000
     12 H1          15.2460    22.9010   -14.6170 hn         1 W9S       0.401500
     13 H2          14.8280    21.5020   -15.3040 hn         1 W9S       0.401500
     14 H4          16.8580    19.2460   -13.4500 h1         1 W9S       0.033700
     15 H5          13.8220    19.6260   -13.3240 h1         1 W9S       0.084700
     16 H6          15.9090    18.9500   -11.1890 h1         1 W9S       0.064700
     17 H9          17.1240    21.3590   -11.8280 hc         1 W9S       0.058700
     18 H10         16.0680    22.7270   -12.0640 hc         1 W9S       0.058700
     19 H11         16.9470    21.5620   -14.1640 h1         1 W9S       0.025700
     20 H12         14.2010    18.6520    -9.8260 ho         1 W9S       0.511000
     21 H13         16.8760    20.9450    -8.3830 ho         1 W9S       0.509000
     22 H14         13.1490    20.7830   -11.2110 ho         1 W9S       0.512000
     23 H15         14.0920    17.3930   -12.4170 ho         1 W9S       0.521000
     24 H16         15.3290    18.4040   -15.1440 ho         1 W9S       0.523000
     25 C7          15.4480    21.2460    -9.7100 c3         1 W9S       0.123600
     26 O2          16.7010    20.6580    -9.3110 oh         1 W9S      -0.727000
     27 H7          15.4930    22.3360    -9.5710 h1         1 W9S       0.028200
     28 H8          14.6430    20.8750    -9.0620 h1         1 W9S       0.028200
@<TRIPOS>BOND
     1     1     7 1   
     2     1    12 1   
     3     1    13 1   
     4     2     3 1   
     5     2     7 1   
     6     2    11 1   
     7     2    14 1   
     8     3     4 1   
     9     3    10 1   
    10     3    15 1   
    11     4     5 1   
    12     4     8 1   
    13     4    16 1   
    14     5     6 1   
    15     5     9 1   
    16     5    25 1   
    17     6     7 1   
    18     6    17 1   
    19     6    18 1   
    20     7    19 1   
    21     8    20 1   
    22     9    22 1   
    23    10    23 1   
    24    11    24 1   
    25    21    26 1   
    26    25    26 1   
    27    25    27 1   
    28    25    28 1   
@<TRIPOS>SUBSTRUCTURE
     1 W9S         1 TEMP              0 ****  ****    0 ROOT
