@<TRIPOS>MOLECULE
W9S
   28    28     1     0     0
SMALL
abcg2


@<TRIPOS>ATOM
      1 N1          14.8700    21.8040   -14.3250 n8         1 W9S      -0.987200
      2 C4          15.9060    19.6560   -13.7810 c6         1 W9S       0.189300
      3 C5          14.7530    19.1110   -12.9480 c6         1 W9S       0.140300
      4 C6          14.9680    19.4480   -11.4770 c6         1 W9S       0.110300
      5 C1          15.0670    20.9650   -11.2430 c6         1 W9S       0.174000
      6 C2          16.1030    21.5670   -12.1920 c6         1 W9S      -0.067400
      7 C3          16.0020    21.1730   -13.6650 c6         1 W9S       0.178500
      8 O1          13.8750    18.9000   -10.7600 oh         1 W9S      -0.739000
      9 O3          13.8150    21.5760   -11.4790 oh         1 W9S      -0.698000
     10 O4          14.7310    17.7120   -13.1460 oh         1 W9S      -0.739000
     11 O5          15.7750    19.3200   -15.1430 oh         1 W9S      -0.722000
     12 H1          14.8950    22.8000   -14.1500 hn         1 W9S       0.401500
     13 H2          14.9610    21.6940   -15.3260 hn         1 W9S       0.401500
     14 H4          16.8400    19.2340   -13.3730 h1         1 W9S       0.033700
     15 H5          13.8170    19.5680   -13.2950 h1         1 W9S       0.084700
     16 H6          15.9080    18.9780   -11.1630 h1         1 W9S       0.064700
     17 H9          17.0930    21.2680   -11.8370 hc         1 W9S       0.058700
     18 H10         16.0750    22.6580   -12.1040 hc         1 W9S       0.058700
     19 H11         16.9570    21.4690   -14.1270 h1         1 W9S       0.025700
     20 H12         14.1650    18.6620    -9.8750 ho         1 W9S       0.511000
     21 H13         16.8950    20.9110    -8.5540 ho         1 W9S       0.509000
     22 H14         13.1520    21.0620   -11.0030 ho         1 W9S       0.512000
     23 H15         13.9690    17.3540   -12.6790 ho         1 W9S       0.521000
     24 H16         15.6140    18.3720   -15.2010 ho         1 W9S       0.523000
     25 C7          15.4490    21.2830    -9.7900 c3         1 W9S       0.123600
     26 O2          16.6680    20.6620    -9.4540 oh         1 W9S      -0.727000
     27 H7          15.5110    22.3760    -9.6920 h1         1 W9S       0.028200
     28 H8          14.6370    20.9530    -9.1270 h1         1 W9S       0.028200
@<TRIPOS>BOND
     1     1     7 1   
     2     1    12 1   
     3     1    13 1   
     4     2     3 1   
     5     2     7 1   
     6     2    11 1   
     7     2    14 1   
     8     3     4 1   
     9     3    10 1   
    10     3    15 1   
    11     4     5 1   
    12     4     8 1   
    13     4    16 1   
    14     5     6 1   
    15     5     9 1   
    16     5    25 1   
    17     6     7 1   
    18     6    17 1   
    19     6    18 1   
    20     7    19 1   
    21     8    20 1   
    22     9    22 1   
    23    10    23 1   
    24    11    24 1   
    25    21    26 1   
    26    25    26 1   
    27    25    27 1   
    28    25    28 1   
@<TRIPOS>SUBSTRUCTURE
     1 W9S         1 TEMP              0 ****  ****    0 ROOT
