@<TRIPOS>MOLECULE
W9U
   38    39     1     0     0
SMALL
abcg2


@<TRIPOS>ATOM
      1 N1          -3.1440    13.5830   -33.7830 n7         1 W9U      -0.605900
      2 C7          -1.8850    15.3080   -36.2950 c6         1 W9U       0.108000
      3 C8          -2.0530    15.5050   -34.7930 c6         1 W9U      -0.088900
      4 C9          -1.8310    14.1990   -34.0110 c6         1 W9U       0.136500
      5 O1          -2.9780    12.4590   -32.8870 oh         1 W9U      -0.494300
      6 C1          -0.2320    17.4970   -40.8130 c6         1 W9U      -0.074400
      7 C5          -2.1160    15.8190   -40.7420 c6         1 W9U      -0.074400
      8 C6           0.1950    15.2250   -37.6940 c          1 W9U       0.599100
      9 C4          -1.4020    15.0670   -39.6190 c6         1 W9U      -0.066400
     10 C3          -0.5060    16.0120   -38.7930 c6         1 W9U      -0.131700
     11 C2           0.4910    16.7360   -39.7010 c6         1 W9U      -0.066400
     12 O            1.3720    14.8610   -37.8280 o          1 W9U      -0.616100
     13 C           -1.1270    16.5690   -41.6360 c6         1 W9U      -0.076400
     14 N           -0.5120    14.8830   -36.5910 n          1 W9U      -0.420800
     15 C11          0.1220    13.9960   -35.6040 c6         1 W9U       0.108000
     16 C10         -0.9320    13.2450   -34.8040 c6         1 W9U      -0.088900
     17 H1          -3.7000    14.2320   -33.2320 hn         1 W9U       0.408000
     18 H2          -2.0960    16.2410   -36.8060 h1         1 W9U       0.053700
     19 H3          -2.6010    14.5650   -36.6580 h1         1 W9U       0.053700
     20 H4          -1.3410    16.2580   -34.4530 hc         1 W9U       0.057700
     21 H5          -3.0520    15.8990   -34.5930 hc         1 W9U       0.057700
     22 H6          -1.3520    14.4320   -33.0520 h1         1 W9U       0.049700
     23 H7          -3.2350    11.7000   -33.4250 ho         1 W9U       0.456000
     24 H9          -0.8460    18.2900   -40.3710 hc         1 W9U       0.038950
     25 H10         -2.8170    16.5360   -40.3010 hc         1 W9U       0.038950
     26 H11         -2.7100    15.1190   -41.3350 hc         1 W9U       0.038950
     27 H12         -2.1320    14.5750   -38.9740 hc         1 W9U       0.050950
     28 H13         -0.7720    14.2790   -40.0450 hc         1 W9U       0.050950
     29 H14         -1.1500    16.7700   -38.3410 hc         1 W9U       0.052700
     30 H15          1.1720    16.0030   -40.1420 hc         1 W9U       0.050950
     31 H16          1.1030    17.4190   -39.1080 hc         1 W9U       0.050950
     32 H17         -1.6640    17.1380   -42.4000 hc         1 W9U       0.041200
     33 H18         -0.4990    15.8420   -42.1650 hc         1 W9U       0.041200
     34 H19          0.7640    13.3000   -36.1390 h1         1 W9U       0.053700
     35 H20          0.7670    14.5790   -34.9370 h1         1 W9U       0.053700
     36 H21         -1.5530    12.6600   -35.4870 hc         1 W9U       0.057700
     37 H22         -0.4370    12.5400   -34.1360 hc         1 W9U       0.057700
     38 H8           0.4990    17.9890   -41.4610 hc         1 W9U       0.038950
@<TRIPOS>BOND
     1     1     4 1   
     2     1     5 1   
     3     1    17 1   
     4     2     3 1   
     5     2    14 1   
     6     2    18 1   
     7     2    19 1   
     8     3     4 1   
     9     3    20 1   
    10     3    21 1   
    11     4    16 1   
    12     4    22 1   
    13     5    23 1   
    14     6    11 1   
    15     6    13 1   
    16     6    24 1   
    17     6    38 1   
    18     7     9 1   
    19     7    13 1   
    20     7    25 1   
    21     7    26 1   
    22     8    10 1   
    23     8    12 2   
    24     8    14 1   
    25     9    10 1   
    26     9    27 1   
    27     9    28 1   
    28    10    11 1   
    29    10    29 1   
    30    11    30 1   
    31    11    31 1   
    32    13    32 1   
    33    13    33 1   
    34    14    15 1   
    35    15    16 1   
    36    15    34 1   
    37    15    35 1   
    38    16    36 1   
    39    16    37 1   
@<TRIPOS>SUBSTRUCTURE
     1 W9U         1 TEMP              0 ****  ****    0 ROOT
