@<TRIPOS>MOLECULE
W9U
   38    39     1     0     0
SMALL
No Charge or Current Charge


@<TRIPOS>ATOM
      1 N1          -3.2390    13.4750   -34.1680 n7         1 W9U      -0.605900
      2 C7          -1.6200    15.6740   -36.0740 c6         1 W9U       0.108000
      3 C8          -1.9550    15.5820   -34.5640 c6         1 W9U      -0.088900
      4 C9          -1.9140    14.1290   -34.0200 c6         1 W9U       0.136500
      5 O1          -3.2510    12.1940   -33.4230 oh         1 W9U      -0.494300
      6 C1          -0.3250    17.4500   -40.9020 c6         1 W9U      -0.074400
      7 C5          -2.2220    15.7420   -40.7160 c6         1 W9U      -0.074400
      8 C6           0.2830    15.1520   -37.7200 c          1 W9U       0.599100
      9 C4          -1.4350    14.9650   -39.6300 c6         1 W9U      -0.066400
     10 C3          -0.4550    15.8990   -38.8680 c6         1 W9U      -0.131700
     11 C2           0.4850    16.6900   -39.8220 c6         1 W9U      -0.066400
     12 O            1.3600    14.6140   -37.9470 o          1 W9U      -0.616100
     13 C           -1.2670    16.4940   -41.6770 c6         1 W9U      -0.076400
     14 N           -0.3200    15.0280   -36.4400 n          1 W9U      -0.420800
     15 C11          0.2880    14.1760   -35.3750 c6         1 W9U       0.108000
     16 C10         -0.7840    13.2950   -34.6920 c6         1 W9U      -0.088900
     17 H1          -3.9760    14.0580   -33.7340 hn         1 W9U       0.408000
     18 H2          -1.5900    16.7390   -36.3400 h1         1 W9U       0.053700
     19 H3          -2.4280    15.2050   -36.6520 h1         1 W9U       0.053700
     20 H4          -1.2240    16.1870   -34.0100 hc         1 W9U       0.057700
     21 H5          -2.9300    16.0460   -34.3650 hc         1 W9U       0.057700
     22 H6          -1.6940    14.2040   -32.9430 h1         1 W9U       0.049700
     23 H7          -3.6190    11.5190   -34.0470 ho         1 W9U       0.456000
     24 H9          -0.9160    18.2470   -40.4290 hc         1 W9U       0.038950
     25 H10         -2.9040    16.4590   -40.2370 hc         1 W9U       0.038950
     26 H11         -2.8530    15.0470   -41.2860 hc         1 W9U       0.038950
     27 H12         -2.1380    14.4950   -38.9300 hc         1 W9U       0.050950
     28 H13         -0.8720    14.1460   -40.1000 hc         1 W9U       0.050950
     29 H14         -1.1130    16.6360   -38.3980 hc         1 W9U       0.052700
     30 H15          1.1870    16.0000   -40.3120 hc         1 W9U       0.050950
     31 H16          1.0940    17.4010   -39.2470 hc         1 W9U       0.050950
     32 H17         -1.8520    17.0640   -42.4120 hc         1 W9U       0.041200
     33 H18         -0.6700    15.7690   -42.2480 hc         1 W9U       0.041200
     34 H19          1.0600    13.5180   -35.7970 h1         1 W9U       0.053700
     35 H20          0.7790    14.8180   -34.6300 h1         1 W9U       0.053700
     36 H21         -1.2090    12.6270   -35.4530 hc         1 W9U       0.057700
     37 H22         -0.3100    12.6440   -33.9450 hc         1 W9U       0.057700
     38 H8           0.3610    17.9450   -41.6020 hc         1 W9U       0.038950
@<TRIPOS>BOND
     1     1     4 1   
     2     1     5 1   
     3     1    17 1   
     4     2     3 1   
     5     2    14 1   
     6     2    18 1   
     7     2    19 1   
     8     3     4 1   
     9     3    20 1   
    10     3    21 1   
    11     4    16 1   
    12     4    22 1   
    13     5    23 1   
    14     6    11 1   
    15     6    13 1   
    16     6    24 1   
    17     6    38 1   
    18     7     9 1   
    19     7    13 1   
    20     7    25 1   
    21     7    26 1   
    22     8    10 1   
    23     8    12 2   
    24     8    14 1   
    25     9    10 1   
    26     9    27 1   
    27     9    28 1   
    28    10    11 1   
    29    10    29 1   
    30    11    30 1   
    31    11    31 1   
    32    13    32 1   
    33    13    33 1   
    34    14    15 1   
    35    15    16 1   
    36    15    34 1   
    37    15    35 1   
    38    16    36 1   
    39    16    37 1   
@<TRIPOS>SUBSTRUCTURE
     1 W9U         1 TEMP              0 ****  ****    0 ROOT
