@<TRIPOS>MOLECULE
W9V
   66    68     1     0     0
SMALL
No Charge or Current Charge


@<TRIPOS>ATOM
      1 N1          26.4240     1.2730    12.6160 n7         1 W9V      -0.878400
      2 N3          32.5490    -3.0860    15.9750 no         1 W9V       0.710200
      3 C4          25.7210     2.5030    10.5450 c6         1 W9V      -0.107400
      4 C5          26.5840     2.5280    11.8360 c6         1 W9V       0.136500
      5 C6          27.1020     0.0670    12.1020 c3         1 W9V       0.154800
      6 C7          26.8300    -1.1200    13.0460 c3         1 W9V      -0.080400
      7 C8          27.4140    -2.4670    12.5550 c3         1 W9V      -0.072400
      8 C10         29.5080    -3.8910    12.0660 c3         1 W9V      -0.095400
      9 C13         33.4840    -3.4030    14.8580 ca         1 W9V      -0.294200
     10 C15         35.8110    -3.6680    14.1080 ca         1 W9V      -0.062200
     11 C17         38.9890    -3.8780    15.3550 cc         1 W9V       0.201900
     12 C20         26.2110     3.7800    12.7010 c6         1 W9V       0.130300
     13 C21         24.6900     3.7780    13.0390 c6         1 W9V       0.137300
     14 C1          23.8250     3.7220    11.7430 c6         1 W9V       0.165300
     15 C11         31.0440    -3.9510    11.9470 c3         1 W9V       0.224800
     16 C12         33.0300    -3.7610    13.5690 ca         1 W9V       0.428000
     17 C14         34.8770    -3.3620    15.1170 ca         1 W9V       0.011000
     18 C16         39.2020    -3.2280    14.1370 cc         1 W9V       0.201900
     19 C18         35.3470    -4.0250    12.8310 ca         1 W9V       0.002000
     20 C19         33.9680    -4.0730    12.5700 ca         1 W9V      -0.223000
     21 C2          24.1960     2.4610    10.8610 c6         1 W9V       0.206000
     22 C3          23.3500     2.4170     9.5330 c3         1 W9V       0.166600
     23 C9          28.9590    -2.5060    12.4890 c3         1 W9V      -0.081400
     24 N2          31.6710    -3.8330    13.2710 nu         1 W9V      -0.941200
     25 N4          37.1810    -3.6200    14.3740 na         1 W9V       0.357800
     26 N5          38.0800    -3.0450    13.4840 nd         1 W9V      -0.500300
     27 N6          37.7180    -4.1440    15.5440 nd         1 W9V      -0.500300
     28 O1          22.4330     3.7690    12.1250 oh         1 W9V      -0.703000
     29 O2          23.5470     3.5620     8.6760 oh         1 W9V      -0.732000
     30 O3          23.9770     1.2400    11.5890 oh         1 W9V      -0.739000
     31 O4          31.4450    -2.5930    15.7100 o          1 W9V      -0.422500
     32 O5          32.9540    -3.2620    17.1300 o          1 W9V      -0.422500
     33 O6          26.9770     3.8200    13.9260 oh         1 W9V      -0.727000
     34 O7          24.3610     4.9430    13.8230 oh         1 W9V      -0.731000
     35 H1          26.8130     1.4620    13.5540 hn         1 W9V       0.432000
     36 H3          26.0030     1.6490     9.9140 hc         1 W9V       0.062200
     37 H4          25.9510     3.3970     9.9490 hc         1 W9V       0.062200
     38 H5          27.6410     2.6240    11.5460 h1         1 W9V       0.028700
     39 H6          26.7360    -0.1860    11.0990 h1         1 W9V       0.033200
     40 H7          28.1840     0.2430    12.0340 h1         1 W9V       0.033200
     41 H8          27.2300    -0.8950    14.0420 hc         1 W9V       0.052700
     42 H9          25.7450    -1.2370    13.1610 hc         1 W9V       0.052700
     43 H10         27.0690    -3.2590    13.2300 hc         1 W9V       0.043700
     44 H11         27.0010    -2.6980    11.5650 hc         1 W9V       0.043700
     45 H12         29.0820    -4.1520    11.0890 hc         1 W9V       0.055200
     46 H14         26.4260     4.6780    12.1010 h1         1 W9V       0.051700
     47 H15         24.4790     2.8740    13.6310 h1         1 W9V       0.066700
     48 H16         24.0630     4.6200    11.1520 h1         1 W9V       0.051700
     49 H17         31.3270    -4.9080    11.4870 h1         1 W9V       0.048700
     50 H18         35.2450    -3.0840    16.1050 ha         1 W9V       0.175000
     51 H19         40.1380    -2.8870    13.7150 h4         1 W9V       0.055100
     52 H20         36.0530    -4.2720    12.0400 ha         1 W9V       0.146000
     53 H21         33.6400    -4.3600    11.5770 ha         1 W9V       0.128000
     54 H22         22.2890     2.3320     9.8040 h1         1 W9V       0.038200
     55 H23         23.6160     1.4990     8.9910 h1         1 W9V       0.038200
     56 H24         29.3150    -1.7530    11.7750 hc         1 W9V       0.045200
     57 H25         29.3630    -2.2320    13.4710 hc         1 W9V       0.045200
     58 H26         31.0720    -3.4750    14.0200 hn         1 W9V       0.536000
     59 H27         22.4360     4.3400    12.9310 ho         1 W9V       0.515000
     60 H28         22.9520     3.4450     7.8990 ho         1 W9V       0.507000
     61 H29         24.8670     1.1060    12.0450 ho         1 W9V       0.547000
     62 H30         27.9270     3.8920    13.6710 ho         1 W9V       0.509000
     63 H31         25.1430     5.0570    14.4180 ho         1 W9V       0.520000
     64 H2          29.1660    -4.6590    12.7700 hc         1 W9V       0.055200
     65 H32         31.3900    -3.1430    11.2860 h1         1 W9V       0.048700
     66 H13         39.7180    -4.1600    16.1020 h4         1 W9V       0.055100
@<TRIPOS>BOND
     1     1     4 1   
     2     1     5 1   
     3     1    35 1   
     4     2     9 1   
     5     2    31 1   
     6     2    32 1   
     7     3     4 1   
     8     3    21 1   
     9     3    36 1   
    10     3    37 1   
    11     4    12 1   
    12     4    38 1   
    13     5     6 1   
    14     5    39 1   
    15     5    40 1   
    16     6     7 1   
    17     6    41 1   
    18     6    42 1   
    19     7    23 1   
    20     7    43 1   
    21     7    44 1   
    22     8    15 1   
    23     8    23 1   
    24     8    45 1   
    25     8    64 1   
    26     9    16 ar  
    27     9    17 ar  
    28    10    17 ar  
    29    10    19 ar  
    30    10    25 1   
    31    11    18 1   
    32    11    27 2   
    33    11    66 1   
    34    12    13 1   
    35    12    33 1   
    36    12    46 1   
    37    13    14 1   
    38    13    34 1   
    39    13    47 1   
    40    14    21 1   
    41    14    28 1   
    42    14    48 1   
    43    15    24 1   
    44    15    49 1   
    45    15    65 1   
    46    16    20 ar  
    47    16    24 1   
    48    17    50 1   
    49    18    26 2   
    50    18    51 1   
    51    19    20 ar  
    52    19    52 1   
    53    20    53 1   
    54    21    22 1   
    55    21    30 1   
    56    22    29 1   
    57    22    54 1   
    58    22    55 1   
    59    23    56 1   
    60    23    57 1   
    61    24    58 1   
    62    25    26 1   
    63    25    27 1   
    64    28    59 1   
    65    29    60 1   
    66    30    61 1   
    67    33    62 1   
    68    34    63 1   
@<TRIPOS>SUBSTRUCTURE
     1 W9V         1 TEMP              0 ****  ****    0 ROOT
