@<TRIPOS>MOLECULE
W9V
   66    68     1     0     0
SMALL
abcg2


@<TRIPOS>ATOM
      1 N1          26.4040     1.0850    12.7240 n7         1 W9V      -0.878400
      2 N3          32.5290    -3.4720    16.0970 no         1 W9V       0.710200
      3 C4          26.0560     2.3820    10.6560 c6         1 W9V      -0.107400
      4 C5          26.7880     2.2950    11.9950 c6         1 W9V       0.136500
      5 C6          27.0740    -0.1190    12.2530 c3         1 W9V       0.154800
      6 C7          26.6940    -1.3230    13.1000 c3         1 W9V      -0.080400
      7 C8          27.2760    -2.6370    12.5860 c3         1 W9V      -0.072400
      8 C10         29.3230    -4.0660    12.1750 c3         1 W9V      -0.095400
      9 C13         33.3170    -3.5260    14.9030 ca         1 W9V      -0.294200
     10 C15         35.5270    -3.3480    13.9780 ca         1 W9V      -0.062200
     11 C17         38.7590    -2.8920    15.0620 cc         1 W9V       0.201900
     12 C20         26.4640     3.5430    12.8210 c6         1 W9V       0.130300
     13 C21         24.9620     3.7380    12.9980 c6         1 W9V       0.137300
     14 C1          24.2580     3.7770    11.6430 c6         1 W9V       0.165300
     15 C11         30.8390    -4.1380    12.0880 c3         1 W9V       0.224800
     16 C12         32.7370    -3.7580    13.6230 ca         1 W9V       0.428000
     17 C14         34.6900    -3.3220    15.0610 ca         1 W9V       0.011000
     18 C16         38.9100    -2.8060    13.6760 cc         1 W9V       0.201900
     19 C18         34.9960    -3.5800    12.7040 ca         1 W9V       0.002000
     20 C19         33.6530    -3.7770    12.5400 ca         1 W9V      -0.223000
     21 C2          24.5360     2.5020    10.8320 c6         1 W9V       0.206000
     22 C3          23.8350     2.5430     9.4720 c3         1 W9V       0.166600
     23 C9          28.7980    -2.7050    12.6190 c3         1 W9V      -0.081400
     24 N2          31.4330    -3.9470    13.3960 nu         1 W9V      -0.941200
     25 N4          36.9120    -3.1450    14.1420 na         1 W9V       0.357800
     26 N5          37.7210    -2.9690    13.1230 nd         1 W9V      -0.500300
     27 N6          37.4820    -3.1090    15.3240 nd         1 W9V      -0.500300
     28 O1          22.8700     3.9330    11.8030 oh         1 W9V      -0.703000
     29 O2          24.2200     3.6960     8.7620 oh         1 W9V      -0.732000
     30 O3          24.0110     1.3610    11.4770 oh         1 W9V      -0.739000
     31 O4          31.3260    -3.6640    16.0190 o          1 W9V      -0.422500
     32 O5          33.0760    -3.2370    17.1520 o          1 W9V      -0.422500
     33 O6          27.0340     3.4950    14.1110 oh         1 W9V      -0.727000
     34 O7          24.6780     4.9670    13.6350 oh         1 W9V      -0.731000
     35 H1          26.6290     1.2160    13.7050 hn         1 W9V       0.432000
     36 H3          26.2830     1.5080    10.0390 hc         1 W9V       0.062200
     37 H4          26.4380     3.2460    10.1070 hc         1 W9V       0.062200
     38 H5          27.8730     2.2990    11.7990 h1         1 W9V       0.028700
     39 H6          26.7780    -0.3050    11.2160 h1         1 W9V       0.033200
     40 H7          28.1640     0.0180    12.2450 h1         1 W9V       0.033200
     41 H8          27.0190    -1.1600    14.1340 hc         1 W9V       0.052700
     42 H9          25.6040    -1.4010    13.1260 hc         1 W9V       0.052700
     43 H10         26.8720    -3.4570    13.1870 hc         1 W9V       0.043700
     44 H11         26.9270    -2.8110    11.5620 hc         1 W9V       0.043700
     45 H12         28.9290    -4.3010    11.1840 hc         1 W9V       0.055200
     46 H14         26.8500     4.4060    12.2590 h1         1 W9V       0.051700
     47 H15         24.5540     2.9050    13.5880 h1         1 W9V       0.066700
     48 H16         24.6800     4.6270    11.0850 h1         1 W9V       0.051700
     49 H17         31.1440    -5.1010    11.6660 h1         1 W9V       0.048700
     50 H18         35.0900    -3.1430    16.0480 ha         1 W9V       0.175000
     51 H19         39.7930    -2.6390    13.0830 h4         1 W9V       0.055100
     52 H20         35.6420    -3.6120    11.8380 ha         1 W9V       0.146000
     53 H21         33.2850    -3.9660    11.5420 ha         1 W9V       0.128000
     54 H22         22.7510     2.5100     9.6300 h1         1 W9V       0.038200
     55 H23         24.1100     1.6280     8.9300 h1         1 W9V       0.038200
     56 H24         29.2270    -1.9370    11.9690 hc         1 W9V       0.045200
     57 H25         29.1440    -2.4750    13.6320 hc         1 W9V       0.045200
     58 H26         30.8290    -3.9950    14.2000 hn         1 W9V       0.536000
     59 H27         22.7270     4.7000    12.3680 ho         1 W9V       0.515000
     60 H28         23.7250     3.7200     7.9390 ho         1 W9V       0.507000
     61 H29         24.7000     1.0670    12.1150 ho         1 W9V       0.547000
     62 H30         27.9880     3.6020    14.0300 ho         1 W9V       0.509000
     63 H31         24.9560     4.9060    14.5530 ho         1 W9V       0.520000
     64 H2          28.9540    -4.8510    12.8440 hc         1 W9V       0.055200
     65 H32         31.1940    -3.3610    11.4040 h1         1 W9V       0.048700
     66 H13         39.4930    -2.8120    15.8470 h4         1 W9V       0.055100
@<TRIPOS>BOND
     1     1     4 1   
     2     1     5 1   
     3     1    35 1   
     4     2     9 1   
     5     2    31 1   
     6     2    32 1   
     7     3     4 1   
     8     3    21 1   
     9     3    36 1   
    10     3    37 1   
    11     4    12 1   
    12     4    38 1   
    13     5     6 1   
    14     5    39 1   
    15     5    40 1   
    16     6     7 1   
    17     6    41 1   
    18     6    42 1   
    19     7    23 1   
    20     7    43 1   
    21     7    44 1   
    22     8    15 1   
    23     8    23 1   
    24     8    45 1   
    25     8    64 1   
    26     9    16 ar  
    27     9    17 ar  
    28    10    17 ar  
    29    10    19 ar  
    30    10    25 1   
    31    11    18 1   
    32    11    27 2   
    33    11    66 1   
    34    12    13 1   
    35    12    33 1   
    36    12    46 1   
    37    13    14 1   
    38    13    34 1   
    39    13    47 1   
    40    14    21 1   
    41    14    28 1   
    42    14    48 1   
    43    15    24 1   
    44    15    49 1   
    45    15    65 1   
    46    16    20 ar  
    47    16    24 1   
    48    17    50 1   
    49    18    26 2   
    50    18    51 1   
    51    19    20 ar  
    52    19    52 1   
    53    20    53 1   
    54    21    22 1   
    55    21    30 1   
    56    22    29 1   
    57    22    54 1   
    58    22    55 1   
    59    23    56 1   
    60    23    57 1   
    61    24    58 1   
    62    25    26 1   
    63    25    27 1   
    64    28    59 1   
    65    29    60 1   
    66    30    61 1   
    67    33    62 1   
    68    34    63 1   
@<TRIPOS>SUBSTRUCTURE
     1 W9V         1 TEMP              0 ****  ****    0 ROOT
