@<TRIPOS>MOLECULE
W9W
   40    42     1     0     0
SMALL
No Charge or Current Charge


@<TRIPOS>ATOM
      1 S1           6.4070     7.9640    21.9840 s4         1 W9W       0.052700
      2 C2           5.5000     7.0900    20.4880 c2         1 W9W      -0.489600
      3 C3           3.9860     7.1580    20.6540 c5         1 W9W       0.040800
      4 C4           3.7260     7.4040    22.1840 c5         1 W9W      -0.070400
      5 C5           4.7320     8.5320    22.5890 c5         1 W9W       0.140900
      6 C6           3.3410     5.8140    20.2980 ca         1 W9W      -0.070300
      7 C7           3.8700     4.5910    20.7680 ca         1 W9W      -0.090000
      8 C8           3.2620     3.3690    20.4340 ca         1 W9W      -0.106500
      9 C9           2.1160     3.3530    19.6220 ca         1 W9W      -0.110000
     10 C10          1.5820     4.5600    19.1450 ca         1 W9W      -0.106500
     11 C11          2.1920     5.7820    19.4810 ca         1 W9W      -0.090000
     12 N12          5.8790     7.4460    19.1630 ns         1 W9W      -0.353100
     13 C13          7.1420     7.5430    18.6050 c          1 W9W       0.597300
     14 C14          7.2190     7.9580    17.1440 ce         1 W9W      -0.208400
     15 O15          8.1490     7.2930    19.2630 o          1 W9W      -0.699100
     16 C16          6.3010     8.2700    16.1630 cf         1 W9W      -0.104400
     17 C17          7.0940     8.6290    14.8870 c5         1 W9W      -0.045200
     18 C18          8.4820     9.0360    15.4300 c5         1 W9W      -0.089400
     19 C19          8.6570     8.0470    16.6100 c5         1 W9W      -0.027200
     20 C20          4.7890     8.3410    16.1620 c          1 W9W       0.704200
     21 O21          4.1710     8.0930    17.1820 o          1 W9W      -0.704500
     22 O22          4.2300     8.6470    15.1190 o          1 W9W      -0.704500
     23 H1           3.5620     7.9830    20.0650 hc         1 W9W       0.070700
     24 H23          2.6890     7.6970    22.3770 hc         1 W9W       0.043700
     25 H2           3.9150     6.5040    22.7800 hc         1 W9W       0.043700
     26 H3           4.7830     8.6950    23.6730 h1         1 W9W       0.069700
     27 H24          4.5050     9.4820    22.0910 h1         1 W9W       0.069700
     28 H25          4.7590     4.5890    21.3950 ha         1 W9W       0.104000
     29 H26          3.6790     2.4350    20.8030 ha         1 W9W       0.098500
     30 H27          1.6450     2.4080    19.3620 ha         1 W9W       0.097000
     31 H28          0.6960     4.5510    18.5150 ha         1 W9W       0.098500
     32 H29          1.7680     6.7100    19.1030 ha         1 W9W       0.104000
     33 H30          5.1360     7.6330    18.4890 hn         1 W9W       0.392500
     34 H31          7.1620     7.7640    14.2170 hc         1 W9W       0.054200
     35 H32          6.6360     9.4460    14.3180 hc         1 W9W       0.054200
     36 H33          9.2760     8.9500    14.6800 hc         1 W9W       0.025700
     37 H34          8.4740    10.0720    15.7870 hc         1 W9W       0.025700
     38 H36          9.3780     8.4330    17.3390 hc         1 W9W       0.041700
     39 H35          9.0130     7.0660    16.2720 hc         1 W9W       0.041700
     40 H4           6.2000     6.9240    22.8890 hs         1 W9W       0.098000
@<TRIPOS>BOND
     1     1     2 2   
     2     1     5 1   
     3     1    40 1   
     4     2     3 1   
     5     2    12 1   
     6     3     4 1   
     7     3     6 1   
     8     3    23 1   
     9     4     5 1   
    10     4    24 1   
    11     4    25 1   
    12     5    26 1   
    13     5    27 1   
    14     6     7 ar  
    15     6    11 ar  
    16     7     8 ar  
    17     7    28 1   
    18     8     9 ar  
    19     8    29 1   
    20     9    10 ar  
    21     9    30 1   
    22    10    11 ar  
    23    10    31 1   
    24    11    32 1   
    25    12    13 1   
    26    12    33 1   
    27    13    14 1   
    28    13    15 2   
    29    14    16 2   
    30    14    19 1   
    31    16    17 1   
    32    16    20 1   
    33    17    18 1   
    34    17    34 1   
    35    17    35 1   
    36    18    19 1   
    37    18    36 1   
    38    18    37 1   
    39    19    38 1   
    40    19    39 1   
    41    20    21 1   
    42    20    22 1   
@<TRIPOS>SUBSTRUCTURE
     1 W9W         1 TEMP              0 ****  ****    0 ROOT
