@<TRIPOS>MOLECULE
W9W
   40    42     1     0     0
SMALL
abcg2


@<TRIPOS>ATOM
      1 S1           6.3720     7.5510    21.8380 s4         1 W9W       0.052700
      2 C2           5.2810     7.8750    20.5730 c2         1 W9W      -0.489600
      3 C3           3.8460     7.5270    20.9190 c5         1 W9W       0.040800
      4 C4           3.8020     7.3520    22.4640 c5         1 W9W      -0.070400
      5 C5           5.0870     7.9010    23.0760 c5         1 W9W       0.140900
      6 C6           3.2710     6.2990    20.2340 ca         1 W9W      -0.070300
      7 C7           4.0420     5.1530    20.0370 ca         1 W9W      -0.090000
      8 C8           3.4980     4.0240    19.4360 ca         1 W9W      -0.106500
      9 C9           2.1680     4.0220    19.0230 ca         1 W9W      -0.110000
     10 C10          1.3900     5.1590    19.2170 ca         1 W9W      -0.106500
     11 C11          1.9410     6.2870    19.8160 ca         1 W9W      -0.090000
     12 N12          5.6490     7.8630    19.2200 ns         1 W9W      -0.353100
     13 C13          6.8760     8.1360    18.7510 c          1 W9W       0.597300
     14 C14          7.1090     8.1230    17.2880 ce         1 W9W      -0.208400
     15 O15          7.8220     8.4020    19.5280 o          1 W9W      -0.699100
     16 C16          6.4010     7.6250    16.2480 cf         1 W9W      -0.104400
     17 C17          7.1710     7.7890    14.9530 c5         1 W9W      -0.045200
     18 C18          8.2400     8.8350    15.2960 c5         1 W9W      -0.089400
     19 C19          8.4350     8.6850    16.8120 c5         1 W9W      -0.027200
     20 C20          5.0900     6.8850    16.2140 c          1 W9W       0.704200
     21 O21          4.1970     7.1920    17.0610 o          1 W9W      -0.704500
     22 O22          4.9640     6.0180    15.3170 o          1 W9W      -0.704500
     23 H1           3.2130     8.3750    20.6330 hc         1 W9W       0.070700
     24 H23          2.9270     7.8410    22.8920 hc         1 W9W       0.043700
     25 H2           3.7320     6.2890    22.6990 hc         1 W9W       0.043700
     26 H3           5.3620     7.4240    24.0160 h1         1 W9W       0.069700
     27 H24          5.0770     8.9820    23.1930 h1         1 W9W       0.069700
     28 H25          5.0800     5.1490    20.3440 ha         1 W9W       0.104000
     29 H26          4.1140     3.1460    19.2850 ha         1 W9W       0.098500
     30 H27          1.7450     3.1440    18.5510 ha         1 W9W       0.097000
     31 H28          0.3550     5.1700    18.8950 ha         1 W9W       0.098500
     32 H29          1.3350     7.1760    19.9540 ha         1 W9W       0.104000
     33 H30          4.9390     7.6130    18.5040 hn         1 W9W       0.392500
     34 H31          7.6190     6.8300    14.6710 hc         1 W9W       0.054200
     35 H32          6.5260     8.0850    14.1230 hc         1 W9W       0.054200
     36 H33          9.1640     8.7060    14.7320 hc         1 W9W       0.025700
     37 H34          7.8540     9.8340    15.0780 hc         1 W9W       0.025700
     38 H36          8.6870     9.6220    17.3110 hc         1 W9W       0.041700
     39 H35          9.2420     7.9820    17.0480 hc         1 W9W       0.041700
     40 H4           6.4780     6.1910    22.2810 hs         1 W9W       0.098000
@<TRIPOS>BOND
     1     1     2 2   
     2     1     5 1   
     3     1    40 1   
     4     2     3 1   
     5     2    12 1   
     6     3     4 1   
     7     3     6 1   
     8     3    23 1   
     9     4     5 1   
    10     4    24 1   
    11     4    25 1   
    12     5    26 1   
    13     5    27 1   
    14     6     7 ar  
    15     6    11 ar  
    16     7     8 ar  
    17     7    28 1   
    18     8     9 ar  
    19     8    29 1   
    20     9    10 ar  
    21     9    30 1   
    22    10    11 ar  
    23    10    31 1   
    24    11    32 1   
    25    12    13 1   
    26    12    33 1   
    27    13    14 1   
    28    13    15 2   
    29    14    16 2   
    30    14    19 1   
    31    16    17 1   
    32    16    20 1   
    33    17    18 1   
    34    17    34 1   
    35    17    35 1   
    36    18    19 1   
    37    18    36 1   
    38    18    37 1   
    39    19    38 1   
    40    19    39 1   
    41    20    21 1   
    42    20    22 1   
@<TRIPOS>SUBSTRUCTURE
     1 W9W         1 TEMP              0 ****  ****    0 ROOT
