@<TRIPOS>MOLECULE
W9X
   57    61     1     0     0
SMALL
No Charge or Current Charge


@<TRIPOS>ATOM
      1 N1           6.7650    -3.6500    -2.8800 nb         1 W9X      -0.643000
      2 C5           4.7960    -2.2280    -2.7730 ca         1 W9X       0.333500
      3 C6           6.1740    -2.4480    -2.7020 ca         1 W9X       0.392800
      4 C8           5.8550    -0.1800    -2.6580 cc         1 W9X       0.311900
      5 C13          1.6500     0.7830    -4.2030 ca         1 W9X      -0.078000
      6 C15          1.4290     0.8070    -1.7820 ca         1 W9X       0.133100
      7 C24         10.6100    -1.6910    -2.3110 c6         1 W9X       0.156300
      8 C28          8.8220    -2.6440    -0.8340 c6         1 W9X       0.091000
      9 C2           5.8880    -4.6780    -3.0500 ca         1 W9X       0.303300
     10 C3           4.4620    -4.4750    -3.0710 ca         1 W9X       0.293300
     11 N4           3.9020    -3.2370    -2.9480 nb         1 W9X      -0.632000
     12 N7           4.6300    -0.8560    -2.7170 na         1 W9X      -0.155200
     13 C9           6.8220    -1.1550    -2.5970 cd         1 W9X      -0.450000
     14 N10          5.9630     1.1680    -2.6240 nv         1 W9X      -0.954000
     15 C11          3.4010    -0.1980    -2.8140 ca         1 W9X       0.019800
     16 C12          2.8860     0.1220    -4.0960 ca         1 W9X      -0.092300
     17 C14          0.9280     1.1230    -3.0520 ca         1 W9X      -0.123000
     18 C16          2.6700     0.1450    -1.6430 ca         1 W9X      -0.134300
     19 C18          3.6450    -0.2420    -5.3720 c3         1 W9X      -0.046800
     20 N23          9.1450    -1.8480    -2.0660 n          1 W9X      -0.391800
     21 C25         11.3780    -2.9260    -1.9140 cc         1 W9X      -0.146300
     22 N26         10.8540    -4.0070    -1.2290 na         1 W9X       0.127800
     23 C27          9.4390    -4.0700    -0.8350 c6         1 W9X       0.078600
     24 C29         12.6880    -3.2470    -2.1030 cd         1 W9X      -0.230000
     25 C30         12.8840    -4.5160    -1.5190 cd         1 W9X       0.241900
     26 N31         11.7790    -5.0030    -0.9790 nc         1 W9X      -0.526800
     27 O32          8.7040     0.2360    -2.8980 o          1 W9X      -0.667100
     28 H1           1.2430     1.0330    -5.1810 ha         1 W9X       0.124000
     29 H2           3.2910     0.7180     0.3730 hc         1 W9X       0.052367
     30 H3           2.5130    -0.8740     0.2830 hc         1 W9X       0.052367
     31 H4           4.1800    -0.6680    -0.2330 hc         1 W9X       0.052367
     32 H5           7.6080    -6.0030    -3.2800 hc         1 W9X       0.052700
     33 H6           6.2600    -6.7050    -2.3730 hc         1 W9X       0.052700
     34 H7           6.1570    -6.5380    -4.1360 hc         1 W9X       0.052700
     35 H8           2.4410    -5.2940    -3.1790 hc         1 W9X       0.052367
     36 H9           3.6090    -6.0870    -4.2450 hc         1 W9X       0.052367
     37 H10          3.6400    -6.4010    -2.5000 hc         1 W9X       0.052367
     38 H12         10.9770    -0.8220    -1.7450 h1         1 W9X       0.070700
     39 H13          9.2320    -2.0990     0.0290 h1         1 W9X       0.061700
     40 H14          7.7420    -2.7070    -0.6580 h1         1 W9X       0.061700
     41 H15          6.8890     1.5610    -2.7840 hn         1 W9X       0.515500
     42 H16          5.1670     1.7390    -2.8920 hn         1 W9X       0.515500
     43 H17         -0.0280     1.6320    -3.1450 ha         1 W9X       0.136000
     44 H18          4.6430     0.2110    -5.3850 hc         1 W9X       0.050700
     45 H19          3.7670    -1.3280    -5.4620 hc         1 W9X       0.050700
     46 H20          3.1210     0.1020    -6.2720 hc         1 W9X       0.050700
     47 H22          8.9080    -4.7070    -1.5520 h1         1 W9X       0.078700
     48 H23          9.3510    -4.5230     0.1620 h1         1 W9X       0.078700
     49 H24         13.4410    -2.6460    -2.6020 ha         1 W9X       0.143000
     50 H25         13.7990    -5.0950    -1.4730 h4         1 W9X       0.034100
     51 C20          6.5140    -6.0550    -3.2190 c3         1 W9X      -0.138400
     52 C21          3.4830    -5.6260    -3.2590 c3         1 W9X      -0.135400
     53 C22          8.2690    -0.8530    -2.5440 c          1 W9X       0.672300
     54 O19          0.6880     1.1550    -0.6880 oh         1 W9X      -0.537100
     55 C17          3.1950    -0.1890    -0.2360 c3         1 W9X      -0.054800
     56 H11         10.7730    -1.4770    -3.3770 h1         1 W9X       0.070700
     57 H21          1.1640     0.8590     0.1140 ho         1 W9X       0.469000
@<TRIPOS>BOND
     1     1     3 ar  
     2     1     9 ar  
     3     2     3 ar  
     4     2    11 ar  
     5     2    12 1   
     6     3    13 1   
     7     4    12 1   
     8     4    13 2   
     9     4    14 1   
    10     5    16 ar  
    11     5    17 ar  
    12     5    28 1   
    13     6    17 ar  
    14     6    18 ar  
    15     6    54 1   
    16     7    20 1   
    17     7    21 1   
    18     7    38 1   
    19     7    56 1   
    20     8    20 1   
    21     8    23 1   
    22     8    39 1   
    23     8    40 1   
    24     9    10 ar  
    25     9    51 1   
    26    10    11 ar  
    27    10    52 1   
    28    12    15 1   
    29    13    53 1   
    30    14    41 1   
    31    14    42 1   
    32    15    16 ar  
    33    15    18 ar  
    34    16    19 1   
    35    17    43 1   
    36    18    55 1   
    37    19    44 1   
    38    19    45 1   
    39    19    46 1   
    40    20    53 1   
    41    21    22 1   
    42    21    24 2   
    43    22    23 1   
    44    22    26 1   
    45    23    47 1   
    46    23    48 1   
    47    24    25 1   
    48    24    49 1   
    49    25    26 2   
    50    25    50 1   
    51    27    53 2   
    52    29    55 1   
    53    30    55 1   
    54    31    55 1   
    55    32    51 1   
    56    33    51 1   
    57    34    51 1   
    58    35    52 1   
    59    36    52 1   
    60    37    52 1   
    61    54    57 1   
@<TRIPOS>SUBSTRUCTURE
     1 W9X         1 TEMP              0 ****  ****    0 ROOT
