@<TRIPOS>MOLECULE
W9X
   57    61     1     0     0
SMALL
abcg2


@<TRIPOS>ATOM
      1 N1           6.6160    -3.8240    -2.6410 nb         1 W9X      -0.643000
      2 C5           4.8100    -2.2850    -2.7010 ca         1 W9X       0.333500
      3 C6           6.1950    -2.5630    -2.5740 ca         1 W9X       0.392800
      4 C8           5.8730    -0.3200    -2.5290 cc         1 W9X       0.311900
      5 C13          1.8490     0.8050    -4.3510 ca         1 W9X      -0.078000
      6 C15          1.4390     0.8280    -1.9800 ca         1 W9X       0.133100
      7 C24         10.6160    -1.4610    -1.9840 c6         1 W9X       0.156300
      8 C28          8.9320    -2.8340    -0.8760 c6         1 W9X       0.091000
      9 C2           5.6780    -4.7740    -2.8000 ca         1 W9X       0.303300
     10 C3           4.3090    -4.4670    -2.8990 ca         1 W9X       0.293300
     11 N4           3.8760    -3.1890    -2.8540 nb         1 W9X      -0.632000
     12 N7           4.6360    -0.9090    -2.6570 na         1 W9X      -0.155200
     13 C9           6.8790    -1.3040    -2.4360 cd         1 W9X      -0.450000
     14 N10          6.0000     1.0130    -2.4710 nv         1 W9X      -0.954000
     15 C11          3.4040    -0.2100    -2.8570 ca         1 W9X       0.019800
     16 C12          3.0420     0.1100    -4.1700 ca         1 W9X      -0.092300
     17 C14          1.0540     1.1620    -3.2720 ca         1 W9X      -0.123000
     18 C16          2.6300     0.1280    -1.7440 ca         1 W9X      -0.134300
     19 C18          3.9090    -0.2850    -5.3330 c3         1 W9X      -0.046800
     20 N23          9.2070    -1.8370    -1.9080 n          1 W9X      -0.391800
     21 C25         11.4770    -2.6840    -1.9660 cc         1 W9X      -0.146300
     22 N26         10.9930    -3.8830    -1.5710 na         1 W9X       0.127800
     23 C27          9.6070    -4.1500    -1.2200 c6         1 W9X       0.078600
     24 C29         12.8100    -2.8840    -2.2820 cd         1 W9X      -0.230000
     25 C30         13.0290    -4.2530    -2.0490 cd         1 W9X       0.241900
     26 N31         11.9210    -4.8610    -1.6240 nc         1 W9X      -0.526800
     27 O32          8.6620     0.1880    -2.7600 o          1 W9X      -0.667100
     28 H1           1.5380     1.0690    -5.3540 ha         1 W9X       0.124000
     29 H2           3.1640     0.6680     0.2720 hc         1 W9X       0.052367
     30 H3           2.2640    -0.8440     0.1410 hc         1 W9X       0.052367
     31 H4           3.9630    -0.7870    -0.3190 hc         1 W9X       0.052367
     32 H5           7.2340    -6.2320    -2.7800 hc         1 W9X       0.052700
     33 H6           5.7110    -6.8010    -2.0730 hc         1 W9X       0.052700
     34 H7           5.8610    -6.6640    -3.8170 hc         1 W9X       0.052700
     35 H8           2.2830    -5.0920    -3.1180 hc         1 W9X       0.052367
     36 H9           3.4450    -6.1160    -3.9820 hc         1 W9X       0.052367
     37 H10          3.2970    -6.2500    -2.2370 hc         1 W9X       0.052367
     38 H12         10.8820    -0.8030    -1.1470 h1         1 W9X       0.070700
     39 H13          9.3160    -2.4580     0.0790 h1         1 W9X       0.061700
     40 H14          7.8660    -2.9900    -0.7760 h1         1 W9X       0.061700
     41 H15          6.9350     1.3680    -2.6160 hn         1 W9X       0.515500
     42 H16          5.2160     1.6010    -2.7080 hn         1 W9X       0.515500
     43 H17          0.1280     1.7040    -3.4210 ha         1 W9X       0.136000
     44 H18          4.9110     0.1420    -5.2520 hc         1 W9X       0.050700
     45 H19          4.0260    -1.3690    -5.3910 hc         1 W9X       0.050700
     46 H20          3.4690     0.0600    -6.2680 hc         1 W9X       0.050700
     47 H22          9.0990    -4.6200    -2.0620 h1         1 W9X       0.078700
     48 H23          9.5880    -4.8270    -0.3670 h1         1 W9X       0.078700
     49 H24         13.5140    -2.1450    -2.6290 ha         1 W9X       0.143000
     50 H25         13.9400    -4.8180    -2.1730 h4         1 W9X       0.034100
     51 C20          6.1510    -6.1970    -2.8720 c3         1 W9X      -0.138400
     52 C21          3.2750    -5.5400    -3.0680 c3         1 W9X      -0.135400
     53 C22          8.2860    -0.9350    -2.3700 c          1 W9X       0.672300
     54 O19          0.6090     1.2080    -0.9640 oh         1 W9X      -0.537100
     55 C17          3.0300    -0.2290    -0.3410 c3         1 W9X      -0.054800
     56 H11         10.7850    -0.8990    -2.8980 h1         1 W9X       0.070700
     57 H21          0.9670     0.9360    -0.1090 ho         1 W9X       0.469000
@<TRIPOS>BOND
     1     1     3 ar  
     2     1     9 ar  
     3     2     3 ar  
     4     2    11 ar  
     5     2    12 1   
     6     3    13 1   
     7     4    12 1   
     8     4    13 2   
     9     4    14 1   
    10     5    16 ar  
    11     5    17 ar  
    12     5    28 1   
    13     6    17 ar  
    14     6    18 ar  
    15     6    54 1   
    16     7    20 1   
    17     7    21 1   
    18     7    38 1   
    19     7    56 1   
    20     8    20 1   
    21     8    23 1   
    22     8    39 1   
    23     8    40 1   
    24     9    10 ar  
    25     9    51 1   
    26    10    11 ar  
    27    10    52 1   
    28    12    15 1   
    29    13    53 1   
    30    14    41 1   
    31    14    42 1   
    32    15    16 ar  
    33    15    18 ar  
    34    16    19 1   
    35    17    43 1   
    36    18    55 1   
    37    19    44 1   
    38    19    45 1   
    39    19    46 1   
    40    20    53 1   
    41    21    22 1   
    42    21    24 2   
    43    22    23 1   
    44    22    26 1   
    45    23    47 1   
    46    23    48 1   
    47    24    25 1   
    48    24    49 1   
    49    25    26 2   
    50    25    50 1   
    51    27    53 2   
    52    29    55 1   
    53    30    55 1   
    54    31    55 1   
    55    32    51 1   
    56    33    51 1   
    57    34    51 1   
    58    35    52 1   
    59    36    52 1   
    60    37    52 1   
    61    54    57 1   
@<TRIPOS>SUBSTRUCTURE
     1 W9X         1 TEMP              0 ****  ****    0 ROOT
