@<TRIPOS>MOLECULE
W9Y
   66    68     1     0     0
SMALL
abcg2


@<TRIPOS>ATOM
      1 N1         -13.2340    21.0030    13.3330 n7         1 W9Y      -0.880400
      2 N3         -15.7410    30.0540    13.8670 no         1 W9Y       0.709200
      3 C4         -13.6700    18.8410    12.2470 c6         1 W9Y       0.127300
      4 C5         -13.5470    19.5930    13.5750 c6         1 W9Y       0.137500
      5 C6         -14.8590    19.4490    14.3460 c6         1 W9Y      -0.108400
      6 C7         -17.3430    19.8740    14.3780 c3         1 W9Y       0.166600
      7 C8         -12.6040    21.6740    14.4600 c3         1 W9Y       0.157800
      8 C10        -11.6510    23.8620    15.2940 c3         1 W9Y      -0.072400
      9 C13        -12.1090    27.6510    14.5190 c3         1 W9Y       0.220800
     10 C15        -12.0120    30.4310    13.8650 ca         1 W9Y      -0.219000
     11 C17        -13.0690    32.5190    13.3220 ca         1 W9Y      -0.089200
     12 C20        -12.4340    35.9460    12.7800 cc         1 W9Y       0.193900
     13 C21        -12.0700    34.7940    13.4200 cd         1 W9Y      -0.210000
     14 C1         -16.0580    19.9970    13.5590 c6         1 W9Y       0.207000
     15 C11        -11.2980    25.3140    14.9860 c3         1 W9Y      -0.069400
     16 C12        -12.5140    26.2080    14.7720 c3         1 W9Y      -0.098400
     17 C14        -13.2600    29.7680    13.9990 ca         1 W9Y       0.432000
     18 C16        -11.9170    31.7530    13.5290 ca         1 W9Y      -0.013000
     19 C18        -14.3010    31.9320    13.4480 ca         1 W9Y       0.030000
     20 C19        -14.4100    30.5780    13.7710 ca         1 W9Y      -0.292200
     21 C2         -16.1550    19.2090    12.2410 c6         1 W9Y       0.164300
     22 C3         -14.8660    19.3190    11.4300 c6         1 W9Y       0.138300
     23 C9         -12.3330    23.1340    14.1420 c3         1 W9Y      -0.084400
     24 N2         -13.2850    28.4690    14.3100 nu         1 W9Y      -0.937200
     25 N4         -12.9630    33.8840    12.9800 na         1 W9Y       0.229000
     26 N5         -13.8170    34.4370    12.1260 nd         1 W9Y      -0.192800
     27 N6         -13.5070    35.6790    12.0050 nc         1 W9Y      -0.352000
     28 O1         -17.6270    18.5180    14.6300 oh         1 W9Y      -0.733000
     29 O2         -15.9060    21.3790    13.3180 oh         1 W9Y      -0.739000
     30 O3         -17.2550    19.6780    11.5000 oh         1 W9Y      -0.702000
     31 O4         -15.0480    18.5230    10.2770 oh         1 W9Y      -0.730000
     32 O5         -12.5230    18.9950    11.4370 oh         1 W9Y      -0.729000
     33 O6         -15.8920    28.8860    14.1870 o          1 W9Y      -0.417000
     34 O7         -16.6780    30.7830    13.6270 o          1 W9Y      -0.417000
     35 H1         -12.6140    21.0660    12.5330 hn         1 W9Y       0.432000
     36 H3         -13.8300    17.7810    12.4910 h1         1 W9Y       0.053700
     37 H4         -12.7440    19.1130    14.1570 h1         1 W9Y       0.030700
     38 H5         -14.7930    19.9620    15.3100 hc         1 W9Y       0.063200
     39 H6         -15.0120    18.3920    14.5750 hc         1 W9Y       0.063200
     40 H7         -18.1600    20.3640    13.8350 h1         1 W9Y       0.039700
     41 H8         -17.1970    20.4330    15.3130 h1         1 W9Y       0.039700
     42 H9         -11.6690    21.1730    14.7510 h1         1 W9Y       0.034200
     43 H10        -13.2690    21.6120    15.3260 h1         1 W9Y       0.034200
     44 H11        -12.2920    23.8260    16.1810 hc         1 W9Y       0.043200
     45 H12        -10.7340    23.3280    15.5600 hc         1 W9Y       0.043200
     46 H13        -11.4580    27.6970    13.6390 h1         1 W9Y       0.047700
     47 H14        -11.5280    28.0290    15.3670 h1         1 W9Y       0.047700
     48 H16        -11.9910    36.9260    12.8400 h4         1 W9Y       0.051100
     49 H17        -11.2950    34.5670    14.1320 h4         1 W9Y       0.167000
     50 H18        -10.6590    25.3530    14.0980 hc         1 W9Y       0.041700
     51 H19        -10.7030    25.7180    15.8100 hc         1 W9Y       0.041700
     52 H20        -13.1640    26.1590    15.6510 hc         1 W9Y       0.058200
     53 H21        -13.1020    25.8520    13.9220 hc         1 W9Y       0.058200
     54 H22        -10.9350    32.1960    13.4180 ha         1 W9Y       0.128000
     55 H23        -15.1950    32.5190    13.3010 ha         1 W9Y       0.174000
     56 H24        -16.2880    18.1460    12.4950 h1         1 W9Y       0.051700
     57 H25        -14.7150    20.3690    11.1400 h1         1 W9Y       0.065700
     58 H26        -11.7000    23.1990    13.2490 hc         1 W9Y       0.050200
     59 H27        -13.2790    23.6190    13.8880 hc         1 W9Y       0.050200
     60 H28        -14.1860    28.0330    14.4130 hn         1 W9Y       0.538000
     61 H29        -18.4630    18.4680    15.1000 ho         1 W9Y       0.508000
     62 H30        -14.9400    21.5290    13.1970 ho         1 W9Y       0.546000
     63 H31        -17.2660    19.2030    10.6630 ho         1 W9Y       0.515000
     64 H32        -14.3200    18.6940     9.6700 ho         1 W9Y       0.520000
     65 H33        -11.7920    18.5200    11.8460 ho         1 W9Y       0.508000
     66 H15        -11.0990    29.8760    14.0180 ha         1 W9Y       0.128000
@<TRIPOS>BOND
     1     1     4 1   
     2     1     7 1   
     3     1    35 1   
     4     2    20 1   
     5     2    33 1   
     6     2    34 1   
     7     3     4 1   
     8     3    22 1   
     9     3    32 1   
    10     3    36 1   
    11     4     5 1   
    12     4    37 1   
    13     5    14 1   
    14     5    38 1   
    15     5    39 1   
    16     6    14 1   
    17     6    28 1   
    18     6    40 1   
    19     6    41 1   
    20     7    23 1   
    21     7    42 1   
    22     7    43 1   
    23     8    15 1   
    24     8    23 1   
    25     8    44 1   
    26     8    45 1   
    27     9    16 1   
    28     9    24 1   
    29     9    46 1   
    30     9    47 1   
    31    10    17 ar  
    32    10    18 ar  
    33    10    66 1   
    34    11    18 ar  
    35    11    19 ar  
    36    11    25 1   
    37    12    13 2   
    38    12    27 1   
    39    12    48 1   
    40    13    25 1   
    41    13    49 1   
    42    14    21 1   
    43    14    29 1   
    44    15    16 1   
    45    15    50 1   
    46    15    51 1   
    47    16    52 1   
    48    16    53 1   
    49    17    20 ar  
    50    17    24 1   
    51    18    54 1   
    52    19    20 ar  
    53    19    55 1   
    54    21    22 1   
    55    21    30 1   
    56    21    56 1   
    57    22    31 1   
    58    22    57 1   
    59    23    58 1   
    60    23    59 1   
    61    24    60 1   
    62    25    26 1   
    63    26    27 2   
    64    28    61 1   
    65    29    62 1   
    66    30    63 1   
    67    31    64 1   
    68    32    65 1   
@<TRIPOS>SUBSTRUCTURE
     1 W9Y         1 TEMP              0 ****  ****    0 ROOT
