@<TRIPOS>MOLECULE
W9Y
   66    68     1     0     0
SMALL
No Charge or Current Charge


@<TRIPOS>ATOM
      1 N1         -13.2100    20.9050    13.3720 n7         1 W9Y      -0.880400
      2 N3         -15.6180    29.8970    13.5220 no         1 W9Y       0.709200
      3 C4         -13.7750    18.7800    12.1470 c6         1 W9Y       0.127300
      4 C5         -13.5850    19.4770    13.5370 c6         1 W9Y       0.137500
      5 C6         -14.8790    19.3290    14.3830 c6         1 W9Y      -0.108400
      6 C7         -17.4080    19.8020    14.5630 c3         1 W9Y       0.166600
      7 C8         -12.6060    21.5850    14.5330 c3         1 W9Y       0.157800
      8 C10        -11.6460    23.8270    15.3410 c3         1 W9Y      -0.072400
      9 C13        -11.9290    27.6700    14.3900 c3         1 W9Y       0.220800
     10 C15        -11.8710    30.5870    13.7350 ca         1 W9Y      -0.219000
     11 C17        -13.0280    32.6520    13.1840 ca         1 W9Y      -0.089200
     12 C20        -12.7190    36.0810    13.2410 cc         1 W9Y       0.193900
     13 C21        -12.4770    34.8700    13.8160 cd         1 W9Y      -0.210000
     14 C1         -16.1180    19.9510    13.6720 c6         1 W9Y       0.207000
     15 C11        -11.2190    25.2730    14.9920 c3         1 W9Y      -0.069400
     16 C12        -12.3910    26.2230    14.6450 c3         1 W9Y      -0.098400
     17 C14        -13.0900    29.8860    13.7810 ca         1 W9Y       0.432000
     18 C16        -11.8340    31.9580    13.4410 ca         1 W9Y      -0.013000
     19 C18        -14.2510    31.9600    13.2170 ca         1 W9Y       0.030000
     20 C19        -14.2940    30.5770    13.5190 ca         1 W9Y      -0.292200
     21 C2         -16.3010    19.2510    12.2650 c6         1 W9Y       0.164300
     22 C3         -15.0080    19.3730    11.4010 c6         1 W9Y       0.138300
     23 C9         -12.2790    23.0430    14.1670 c3         1 W9Y      -0.084400
     24 N2         -13.0810    28.5210    14.0640 nu         1 W9Y      -0.937200
     25 N4         -13.0030    34.0140    12.8860 na         1 W9Y       0.229000
     26 N5         -13.5820    34.6540    11.8310 nd         1 W9Y      -0.192800
     27 N6         -13.3810    35.9340    12.0450 nc         1 W9Y      -0.352000
     28 O1         -17.7630    18.4330    14.8530 oh         1 W9Y      -0.733000
     29 O2         -15.8230    21.3500    13.5180 oh         1 W9Y      -0.739000
     30 O3         -17.4070    19.7750    11.4990 oh         1 W9Y      -0.702000
     31 O4         -15.1760    18.7120    10.1320 oh         1 W9Y      -0.730000
     32 O5         -12.5970    18.9230    11.3210 oh         1 W9Y      -0.729000
     33 O6         -15.7960    28.9360    14.2830 o          1 W9Y      -0.417000
     34 O7         -16.5140    30.3830    12.8210 o          1 W9Y      -0.417000
     35 H1         -12.5150    20.9370    12.6090 hn         1 W9Y       0.432000
     36 H3         -13.9710    17.7120    12.3320 h1         1 W9Y       0.053700
     37 H4         -12.7660    18.9620    14.0620 h1         1 W9Y       0.030700
     38 H5         -14.7410    19.7820    15.3740 hc         1 W9Y       0.063200
     39 H6         -15.0580    18.2620    14.5720 hc         1 W9Y       0.063200
     40 H7         -18.2400    20.3020    14.0480 h1         1 W9Y       0.039700
     41 H8         -17.2380    20.3480    15.5010 h1         1 W9Y       0.039700
     42 H9         -11.6840    21.0720    14.8400 h1         1 W9Y       0.034200
     43 H10        -13.2950    21.5800    15.3890 h1         1 W9Y       0.034200
     44 H11        -12.3500    23.8520    16.1830 hc         1 W9Y       0.043200
     45 H12        -10.7600    23.2820    15.6910 hc         1 W9Y       0.043200
     46 H13        -11.2080    27.6780    13.5610 h1         1 W9Y       0.047700
     47 H14        -11.4220    28.0510    15.2880 h1         1 W9Y       0.047700
     48 H16        -12.4690    37.0670    13.6110 h4         1 W9Y       0.051100
     49 H17        -12.0050    34.5770    14.7440 h4         1 W9Y       0.167000
     50 H18        -10.5100    25.2480    14.1540 hc         1 W9Y       0.041700
     51 H19        -10.6730    25.6870    15.8490 hc         1 W9Y       0.041700
     52 H20        -13.1160    26.2140    15.4680 hc         1 W9Y       0.058200
     53 H21        -12.9080    25.8560    13.7500 hc         1 W9Y       0.058200
     54 H22        -10.8780    32.4780    13.4090 ha         1 W9Y       0.128000
     55 H23        -15.1710    32.5090    13.0130 ha         1 W9Y       0.174000
     56 H24        -16.4710    18.1790    12.4490 h1         1 W9Y       0.051700
     57 H25        -14.8120    20.4430    11.2280 h1         1 W9Y       0.065700
     58 H26        -11.5910    23.0560    13.3130 hc         1 W9Y       0.050200
     59 H27        -13.2020    23.5400    13.8470 hc         1 W9Y       0.050200
     60 H28        -14.0100    28.1220    14.2230 hn         1 W9Y       0.538000
     61 H29        -18.5940    18.4570    15.3840 ho         1 W9Y       0.508000
     62 H30        -14.8160    21.3460    13.4570 ho         1 W9Y       0.546000
     63 H31        -17.1730    19.5440    10.5680 ho         1 W9Y       0.515000
     64 H32        -14.2500    18.5680     9.8150 ho         1 W9Y       0.520000
     65 H33        -11.8560    18.4770    11.7950 ho         1 W9Y       0.508000
     66 H15        -10.9340    30.0740    13.9260 ha         1 W9Y       0.128000
@<TRIPOS>BOND
     1     1     4 1   
     2     1     7 1   
     3     1    35 1   
     4     2    20 1   
     5     2    33 1   
     6     2    34 1   
     7     3     4 1   
     8     3    22 1   
     9     3    32 1   
    10     3    36 1   
    11     4     5 1   
    12     4    37 1   
    13     5    14 1   
    14     5    38 1   
    15     5    39 1   
    16     6    14 1   
    17     6    28 1   
    18     6    40 1   
    19     6    41 1   
    20     7    23 1   
    21     7    42 1   
    22     7    43 1   
    23     8    15 1   
    24     8    23 1   
    25     8    44 1   
    26     8    45 1   
    27     9    16 1   
    28     9    24 1   
    29     9    46 1   
    30     9    47 1   
    31    10    17 ar  
    32    10    18 ar  
    33    10    66 1   
    34    11    18 ar  
    35    11    19 ar  
    36    11    25 1   
    37    12    13 2   
    38    12    27 1   
    39    12    48 1   
    40    13    25 1   
    41    13    49 1   
    42    14    21 1   
    43    14    29 1   
    44    15    16 1   
    45    15    50 1   
    46    15    51 1   
    47    16    52 1   
    48    16    53 1   
    49    17    20 ar  
    50    17    24 1   
    51    18    54 1   
    52    19    20 ar  
    53    19    55 1   
    54    21    22 1   
    55    21    30 1   
    56    21    56 1   
    57    22    31 1   
    58    22    57 1   
    59    23    58 1   
    60    23    59 1   
    61    24    60 1   
    62    25    26 1   
    63    26    27 2   
    64    28    61 1   
    65    29    62 1   
    66    30    63 1   
    67    31    64 1   
    68    32    65 1   
@<TRIPOS>SUBSTRUCTURE
     1 W9Y         1 TEMP              0 ****  ****    0 ROOT
