@<TRIPOS>MOLECULE
W9Z
   44    48     1     0     0
SMALL
abcg2


@<TRIPOS>ATOM
      1 C1           3.5060     0.8550    -0.5460 ca         1 W9Z       0.271000
      2 N1           4.3430     1.5540    -1.3490 nb         1 W9Z      -0.657000
      3 C2           3.6460    -0.5500    -0.4690 ca         1 W9Z      -0.084000
      4 N2          -0.9630    -2.0060     0.3700 na         1 W9Z       0.133000
      5 C3           2.8170    -1.2860     0.3280 ca         1 W9Z      -0.089000
      6 N3          -1.4840    -0.7810     0.3430 nc         1 W9Z      -0.482800
      7 C4           1.8030    -0.6690     1.1010 ca         1 W9Z      -0.077300
      8 N4          -4.3980     2.4450    -1.0640 nc         1 W9Z      -0.520800
      9 C5           0.9010    -1.5190     1.9730 c3         1 W9Z      -0.010700
     10 N5          -3.5130     2.8130    -0.1390 na         1 W9Z       0.138800
     11 C6           0.0990    -2.4250     1.1030 cc         1 W9Z       0.357800
     12 N6          -0.6170    -4.1260    -0.0410 nd         1 W9Z      -0.071000
     13 C7          -2.5030    -0.6240    -0.4520 cd         1 W9Z       0.439500
     14 C8          -3.0880     0.7030    -0.5070 cd         1 W9Z      -0.297500
     15 C9          -4.1570     1.1720    -1.2960 cd         1 W9Z       0.272900
     16 C10         -2.7060     1.8140     0.2260 cc         1 W9Z      -0.112000
     17 N10          0.2970    -3.6930     0.8500 nd         1 W9Z      -0.368700
     18 C12         -3.0430    -1.6940    -1.2460 cd         1 W9Z      -0.145000
     19 C13         -2.4940    -2.9290    -1.1920 cc         1 W9Z      -0.022000
     20 C14         -1.3830    -3.1020    -0.3340 cc         1 W9Z      -0.151000
     21 C15          1.6830    -2.2990     3.0270 c3         1 W9Z      -0.078100
     22 C16          1.6490     0.6890     1.0350 ca         1 W9Z      -0.080000
     23 C17          2.4900     1.4780     0.2180 ca         1 W9Z      -0.084000
     24 C18          2.3620     2.8810     0.1170 ca         1 W9Z      -0.061000
     25 C19          3.2140     3.5690    -0.7000 ca         1 W9Z      -0.169000
     26 C20          4.1950     2.8510    -1.4150 ca         1 W9Z       0.351900
     27 H2           4.4210    -1.0270    -1.0560 ha         1 W9Z       0.134000
     28 H3           2.9330    -2.3630     0.3640 ha         1 W9Z       0.131000
     29 H5           0.2030    -0.8490     2.4830 hc         1 W9Z       0.070700
     30 H9          -4.7520     0.6330    -2.0180 h4         1 W9Z       0.042100
     31 H10         -1.9350     1.9380     0.9680 h4         1 W9Z       0.166000
     32 H11         -4.4760     4.4780     0.6570 h1         1 W9Z       0.061033
     33 H11A        -2.7960     4.2510     1.1680 h1         1 W9Z       0.061033
     34 H11B        -3.1490     4.8440    -0.4640 h1         1 W9Z       0.061033
     35 H12         -3.8950    -1.5070    -1.8830 ha         1 W9Z       0.136000
     36 H13         -2.8710    -3.7590    -1.7720 ha         1 W9Z       0.152000
     37 H15          2.3960    -2.9880     2.5770 hc         1 W9Z       0.047700
     38 H15A         2.2370    -1.6050     3.6590 hc         1 W9Z       0.047700
     39 H15B         1.0110    -2.8740     3.6620 hc         1 W9Z       0.047700
     40 H16          0.8730     1.1770     1.6130 ha         1 W9Z       0.111000
     41 H18          1.5950     3.3940     0.6830 ha         1 W9Z       0.112000
     42 H19          3.1500     4.6430    -0.8070 ha         1 W9Z       0.122000
     43 H20          4.8780     3.3870    -2.0650 h4         1 W9Z       0.019100
     44 C11         -3.4830     4.1790     0.3300 c3         1 W9Z       0.069900
@<TRIPOS>BOND
     1     1     2 ar  
     2     1     3 ar  
     3     1    23 ar  
     4     2    26 ar  
     5     3     5 ar  
     6     3    27 1   
     7     4     6 1   
     8     4    11 1   
     9     4    20 1   
    10     5     7 ar  
    11     5    28 1   
    12     6    13 2   
    13     7     9 1   
    14     7    22 ar  
    15     8    10 1   
    16     8    15 2   
    17     9    11 1   
    18     9    21 1   
    19     9    29 1   
    20    10    16 1   
    21    10    44 1   
    22    11    17 2   
    23    12    17 1   
    24    12    20 2   
    25    13    14 1   
    26    13    18 1   
    27    14    15 1   
    28    14    16 2   
    29    15    30 1   
    30    16    31 1   
    31    18    19 2   
    32    18    35 1   
    33    19    20 1   
    34    19    36 1   
    35    21    37 1   
    36    21    38 1   
    37    21    39 1   
    38    22    23 ar  
    39    22    40 1   
    40    23    24 ar  
    41    24    25 ar  
    42    24    41 1   
    43    25    26 ar  
    44    25    42 1   
    45    26    43 1   
    46    32    44 1   
    47    33    44 1   
    48    34    44 1   
@<TRIPOS>SUBSTRUCTURE
     1 W9Z         1 TEMP              0 ****  ****    0 ROOT
