@<TRIPOS>MOLECULE
W9Z
   44    48     1     0     0
SMALL
No Charge or Current Charge


@<TRIPOS>ATOM
      1 C1           2.8180     1.1920    -0.5390 ca         1 W9Z       0.271000
      2 N1           3.3420     2.1170    -1.3790 nb         1 W9Z      -0.657000
      3 C2           3.0480    -0.1760    -0.7740 ca         1 W9Z      -0.084000
      4 N2          -0.9970    -2.1970     0.5810 na         1 W9Z       0.133000
      5 C3           2.5050    -1.1590     0.0720 ca         1 W9Z      -0.089000
      6 N3          -1.2880    -0.8570     0.3860 nc         1 W9Z      -0.482800
      7 C4           1.7230    -0.7900     1.1830 ca         1 W9Z      -0.077300
      8 N4          -3.7590     2.5170    -1.5340 nc         1 W9Z      -0.520800
      9 C5           1.0820    -1.8550     2.0770 c3         1 W9Z      -0.010700
     10 N5          -2.6700     2.8700    -0.7550 na         1 W9Z       0.138800
     11 C6           0.0560    -2.6830     1.3210 cc         1 W9Z       0.357800
     12 N6          -1.1060    -4.3630     0.4640 nd         1 W9Z      -0.071000
     13 C7          -2.3550    -0.6630    -0.4070 cd         1 W9Z       0.439500
     14 C8          -2.6940     0.7110    -0.6900 cd         1 W9Z      -0.297500
     15 C9          -3.7530     1.1970    -1.4810 cd         1 W9Z       0.272900
     16 C10         -1.9900     1.7840    -0.2130 cc         1 W9Z      -0.112000
     17 N10         -0.0140    -4.0130     1.2520 nd         1 W9Z      -0.368700
     18 C12         -3.1650    -1.7130    -0.9970 cd         1 W9Z      -0.145000
     19 C13         -2.8230    -3.0210    -0.7520 cc         1 W9Z      -0.022000
     20 C14         -1.6860    -3.2470     0.0660 cc         1 W9Z      -0.151000
     21 C15          2.1650    -2.7070     2.7850 c3         1 W9Z      -0.078100
     22 C16          1.4930     0.5770     1.4340 ca         1 W9Z      -0.080000
     23 C17          2.0290     1.5590     0.5810 ca         1 W9Z      -0.084000
     24 C18          1.7780     2.9210     0.8290 ca         1 W9Z      -0.061000
     25 C19          2.3240     3.8680    -0.0500 ca         1 W9Z      -0.169000
     26 C20          3.0970     3.4260    -1.1340 ca         1 W9Z       0.351900
     27 H2           3.6460    -0.4760    -1.6290 ha         1 W9Z       0.134000
     28 H3           2.6850    -2.2090    -0.1480 ha         1 W9Z       0.131000
     29 H5           0.5300    -1.3480     2.8780 hc         1 W9Z       0.070700
     30 H9          -4.5130     0.6450    -2.0200 h4         1 W9Z       0.042100
     31 H10         -1.1140     1.8720     0.4180 h4         1 W9Z       0.166000
     32 H11         -3.0670     4.7550     0.0940 h1         1 W9Z       0.061033
     33 H11A        -1.3320     4.3700    -0.1150 h1         1 W9Z       0.061033
     34 H11B        -2.3290     4.7980    -1.5360 h1         1 W9Z       0.061033
     35 H12         -4.0170    -1.4880    -1.6250 ha         1 W9Z       0.136000
     36 H13         -3.3810    -3.8560    -1.1670 ha         1 W9Z       0.152000
     37 H15          2.7400    -3.2980     2.0620 hc         1 W9Z       0.047700
     38 H15A         2.8630    -2.0620     3.3320 hc         1 W9Z       0.047700
     39 H15B         1.7070    -3.3960     3.5040 hc         1 W9Z       0.047700
     40 H16          0.8820     0.8770     2.2820 ha         1 W9Z       0.111000
     41 H18          1.1760     3.2370     1.6780 ha         1 W9Z       0.112000
     42 H19          2.1560     4.9300     0.1030 ha         1 W9Z       0.122000
     43 H20          3.5340     4.1400    -1.8310 h4         1 W9Z       0.019100
     44 C11         -2.3280     4.2860    -0.5660 c3         1 W9Z       0.069900
@<TRIPOS>BOND
     1     1     2 ar  
     2     1     3 ar  
     3     1    23 ar  
     4     2    26 ar  
     5     3     5 ar  
     6     3    27 1   
     7     4     6 1   
     8     4    11 1   
     9     4    20 1   
    10     5     7 ar  
    11     5    28 1   
    12     6    13 2   
    13     7     9 1   
    14     7    22 ar  
    15     8    10 1   
    16     8    15 2   
    17     9    11 1   
    18     9    21 1   
    19     9    29 1   
    20    10    16 1   
    21    10    44 1   
    22    11    17 2   
    23    12    17 1   
    24    12    20 2   
    25    13    14 1   
    26    13    18 1   
    27    14    15 1   
    28    14    16 2   
    29    15    30 1   
    30    16    31 1   
    31    18    19 2   
    32    18    35 1   
    33    19    20 1   
    34    19    36 1   
    35    21    37 1   
    36    21    38 1   
    37    21    39 1   
    38    22    23 ar  
    39    22    40 1   
    40    23    24 ar  
    41    24    25 ar  
    42    24    41 1   
    43    25    26 ar  
    44    25    42 1   
    45    26    43 1   
    46    32    44 1   
    47    33    44 1   
    48    34    44 1   
@<TRIPOS>SUBSTRUCTURE
     1 W9Z         1 TEMP              0 ****  ****    0 ROOT
