@<TRIPOS>MOLECULE
WA0
   27    28     1     0     0
SMALL
No Charge or Current Charge


@<TRIPOS>ATOM
      1 N1           9.4220     1.3170    -5.7430 na         1 WA0      -0.311500
      2 C7          10.3400     0.7960    -8.0570 c3         1 WA0      -0.140700
      3 C8           9.8350     0.4170    -6.6940 cc         1 WA0       0.389800
      4 N2           8.1730     1.3770    -9.1300 n8         1 WA0      -0.991200
      5 C9           9.2430    -0.7130    -4.9510 cd         1 WA0       0.235900
      6 C1          10.4980    -0.4840   -12.7320 ca         1 WA0      -0.111000
      7 C5          11.2830     1.7700   -12.2710 ca         1 WA0      -0.111000
      8 C6           9.3440     0.4820    -9.1940 c3         1 WA0       0.209800
      9 C4          10.6880     1.7180   -10.9980 ca         1 WA0      -0.100500
     10 C3           9.9930     0.5610   -10.5790 ca         1 WA0      -0.074300
     11 C2           9.9020    -0.5370   -11.4600 ca         1 WA0      -0.100500
     12 C           11.1890     0.6690   -13.1380 ca         1 WA0      -0.109000
     13 C10          9.0370     0.6030    -4.6250 cc         1 WA0      -0.227000
     14 N            9.7410    -0.8190    -6.2350 nd         1 WA0      -0.671000
     15 H2           9.4150     2.3240    -5.8550 hn         1 WA0       0.347000
     16 H11         11.2680     0.2430    -8.2460 hc         1 WA0       0.065200
     17 H12         10.6120     1.8570    -8.0730 hc         1 WA0       0.065200
     18 H3           8.4850     2.3430    -9.2660 hn         1 WA0       0.394000
     19 H13          9.0630    -1.5860    -4.3350 h4         1 WA0       0.040100
     20 H7          10.4230    -1.3370   -13.4030 ha         1 WA0       0.112000
     21 H10         11.8160     2.6650   -12.5850 ha         1 WA0       0.112000
     22 H            8.9890    -0.5500    -9.0440 h1         1 WA0       0.083700
     23 H9          10.7660     2.5800   -10.3400 ha         1 WA0       0.113000
     24 H8           9.3700    -1.4370   -11.1580 ha         1 WA0       0.113000
     25 H6          11.6490     0.7110   -14.1230 ha         1 WA0       0.112000
     26 H14          8.6630     1.0590    -3.7160 h4         1 WA0       0.158000
     27 H5           7.7900     1.3650    -8.1780 hn         1 WA0       0.394000
@<TRIPOS>BOND
     1     1     3 1   
     2     1    13 1   
     3     1    15 1   
     4     2     3 1   
     5     2     8 1   
     6     2    16 1   
     7     2    17 1   
     8     3    14 2   
     9     4     8 1   
    10     4    18 1   
    11     4    27 1   
    12     5    13 2   
    13     5    14 1   
    14     5    19 1   
    15     6    11 ar  
    16     6    12 ar  
    17     6    20 1   
    18     7     9 ar  
    19     7    12 ar  
    20     7    21 1   
    21     8    10 1   
    22     8    22 1   
    23     9    10 ar  
    24     9    23 1   
    25    10    11 ar  
    26    11    24 1   
    27    12    25 1   
    28    13    26 1   
@<TRIPOS>SUBSTRUCTURE
     1 WA0         1 TEMP              0 ****  ****    0 ROOT
