@<TRIPOS>MOLECULE
WA0
   27    28     1     0     0
SMALL
abcg2


@<TRIPOS>ATOM
      1 N1           9.7070     1.1840    -5.8380 na         1 WA0      -0.311500
      2 C7          10.3840     0.4250    -8.1330 c3         1 WA0      -0.140700
      3 C8           9.8350     0.2010    -6.7680 cc         1 WA0       0.389800
      4 N2           8.3730     1.7160    -8.9570 n8         1 WA0      -0.991200
      5 C9           8.9080    -0.6700    -5.0210 cd         1 WA0       0.235900
      6 C1          10.9180    -0.5020   -12.4570 ca         1 WA0      -0.111000
      7 C5          10.8260     1.8990   -12.4490 ca         1 WA0      -0.111000
      8 C6           9.2730     0.5890    -9.2080 c3         1 WA0       0.209800
      9 C4          10.1920     1.8710   -11.2100 ca         1 WA0      -0.100500
     10 C3           9.9140     0.6590   -10.5790 ca         1 WA0      -0.074300
     11 C2          10.2850    -0.5250   -11.2190 ca         1 WA0      -0.100500
     12 C           11.1920     0.7140   -13.0770 ca         1 WA0      -0.109000
     13 C10          9.1190     0.6470    -4.7170 cc         1 WA0      -0.227000
     14 N            9.3560    -0.9400    -6.2990 nd         1 WA0      -0.671000
     15 H2           9.9940     2.1440    -5.9540 hn         1 WA0       0.347000
     16 H11         11.0170    -0.4220    -8.4030 hc         1 WA0       0.065200
     17 H12         11.0090     1.3220    -8.1400 hc         1 WA0       0.065200
     18 H3           8.9040     2.5670    -8.7970 hn         1 WA0       0.394000
     19 H13          8.4700    -1.4340    -4.4000 h4         1 WA0       0.040100
     20 H7          11.1920    -1.4330   -12.9390 ha         1 WA0       0.112000
     21 H10         11.0330     2.8510   -12.9240 ha         1 WA0       0.112000
     22 H            8.6600    -0.3150    -9.1750 h1         1 WA0       0.083700
     23 H9           9.9090     2.8050   -10.7420 ha         1 WA0       0.113000
     24 H8          10.0720    -1.4750   -10.7420 ha         1 WA0       0.113000
     25 H6          11.6820     0.7360   -14.0420 ha         1 WA0       0.112000
     26 H14          8.9190     1.2320    -3.8370 h4         1 WA0       0.158000
     27 H5           7.8550     1.5480    -8.1010 hn         1 WA0       0.394000
@<TRIPOS>BOND
     1     1     3 1   
     2     1    13 1   
     3     1    15 1   
     4     2     3 1   
     5     2     8 1   
     6     2    16 1   
     7     2    17 1   
     8     3    14 2   
     9     4     8 1   
    10     4    18 1   
    11     4    27 1   
    12     5    13 2   
    13     5    14 1   
    14     5    19 1   
    15     6    11 ar  
    16     6    12 ar  
    17     6    20 1   
    18     7     9 ar  
    19     7    12 ar  
    20     7    21 1   
    21     8    10 1   
    22     8    22 1   
    23     9    10 ar  
    24     9    23 1   
    25    10    11 ar  
    26    11    24 1   
    27    12    25 1   
    28    13    26 1   
@<TRIPOS>SUBSTRUCTURE
     1 WA0         1 TEMP              0 ****  ****    0 ROOT
