@<TRIPOS>MOLECULE
WA1
   23    24     1     0     0
SMALL
No Charge or Current Charge


@<TRIPOS>ATOM
      1 OAA          0.2650     1.1720    -0.3810 o          1 WA1      -0.594100
      2 CAB         -5.1400     0.5510    -0.0250 ca         1 WA1      -0.128000
      3 CAC         -4.1390     1.5060    -0.2580 ca         1 WA1      -0.082500
      4 CAD         -4.7870    -0.7840     0.2250 ca         1 WA1      -0.082500
      5 CAE         -2.7840     1.1290    -0.2420 ca         1 WA1      -0.143500
      6 CAF         -3.4330    -1.1620     0.2410 ca         1 WA1      -0.143500
      7 CAG          3.5790    -1.5070     0.0060 cc         1 WA1       0.128900
      8 NAH          4.8480    -1.0050    -0.1480 nc         1 WA1      -0.275000
      9 NAI          4.8470     0.2850    -0.4030 nd         1 WA1      -0.189100
     10 NAJ         -1.0710    -0.6710     0.0410 ns         1 WA1      -0.145000
     11 NAK          1.2220    -0.8790    -0.0160 ns         1 WA1      -0.386100
     12 SAL          3.3180     0.9690    -0.4730 ss         1 WA1       0.351100
     13 CAM          0.1420    -0.0210    -0.1400 c          1 WA1       0.658100
     14 CAN         -2.4180    -0.2130     0.0090 ca         1 WA1      -0.016000
     15 CAO          2.5820    -0.5820    -0.1340 cd         1 WA1      -0.092400
     16 HAC         -4.4120     2.5420    -0.4520 ha         1 WA1       0.117500
     17 HAD         -5.5620    -1.5270     0.4060 ha         1 WA1       0.117500
     18 HAE         -2.0380     1.8960    -0.4260 ha         1 WA1       0.128000
     19 HAF         -3.1740    -2.2000     0.4360 ha         1 WA1       0.128000
     20 HAG          3.4610    -2.5610     0.2200 h4         1 WA1       0.049100
     21 HNAJ        -0.9890    -1.6600     0.2340 hn         1 WA1       0.152000
     22 HNAK         0.9600    -1.8370     0.1850 hn         1 WA1       0.330500
     23 HAB         -6.1880     0.8450    -0.0380 ha         1 WA1       0.119000
@<TRIPOS>BOND
     1     1    13 2   
     2     2     3 ar  
     3     2     4 ar  
     4     2    23 1   
     5     3     5 ar  
     6     3    16 1   
     7     4     6 ar  
     8     4    17 1   
     9     5    14 ar  
    10     5    18 1   
    11     6    14 ar  
    12     6    19 1   
    13     7     8 1   
    14     7    15 2   
    15     7    20 1   
    16     8     9 2   
    17     9    12 1   
    18    10    13 1   
    19    10    14 1   
    20    10    21 1   
    21    11    13 1   
    22    11    15 1   
    23    11    22 1   
    24    12    15 1   
@<TRIPOS>SUBSTRUCTURE
     1 WA1         1 TEMP              0 ****  ****    0 ROOT
