@<TRIPOS>MOLECULE
WA1
   23    24     1     0     0
SMALL
abcg2


@<TRIPOS>ATOM
      1 OAA          0.2600     0.9750    -0.1370 o          1 WA1      -0.594100
      2 CAB         -5.0180     0.6710     0.0210 ca         1 WA1      -0.128000
      3 CAC         -3.9700     1.4990    -0.3550 ca         1 WA1      -0.082500
      4 CAD         -4.7440    -0.6450     0.3670 ca         1 WA1      -0.082500
      5 CAE         -2.6610     1.0360    -0.3910 ca         1 WA1      -0.143500
      6 CAF         -3.4430    -1.1200     0.3430 ca         1 WA1      -0.143500
      7 CAG          3.5900    -1.3890    -0.0930 cc         1 WA1       0.128900
      8 NAH          4.7230    -0.6560    -0.1220 nc         1 WA1      -0.275000
      9 NAI          4.5480     0.6010    -0.1540 nd         1 WA1      -0.189100
     10 NAJ         -1.1130    -0.8610    -0.0580 ns         1 WA1      -0.145000
     11 NAK          1.1620    -1.0890    -0.0820 ns         1 WA1      -0.386100
     12 SAL          2.9120     1.0110    -0.1520 ss         1 WA1       0.351100
     13 CAM          0.0840    -0.2310    -0.0950 c          1 WA1       0.658100
     14 CAN         -2.3900    -0.2850    -0.0350 ca         1 WA1      -0.016000
     15 CAO          2.4440    -0.6300    -0.1040 cd         1 WA1      -0.092400
     16 HAC         -4.1670     2.5260    -0.6350 ha         1 WA1       0.117500
     17 HAD         -5.5450    -1.3110     0.6620 ha         1 WA1       0.117500
     18 HAE         -1.8740     1.7060    -0.6990 ha         1 WA1       0.128000
     19 HAF         -3.2430    -2.1480     0.6190 ha         1 WA1       0.128000
     20 HAG          3.6340    -2.4670    -0.0650 h4         1 WA1       0.049100
     21 HNAJ        -1.1000    -1.8640     0.0500 hn         1 WA1       0.152000
     22 HNAK         1.0320    -2.0900    -0.0600 hn         1 WA1       0.330500
     23 HAB         -6.0330     1.0440     0.0410 ha         1 WA1       0.119000
@<TRIPOS>BOND
     1     1    13 2   
     2     2     3 ar  
     3     2     4 ar  
     4     2    23 1   
     5     3     5 ar  
     6     3    16 1   
     7     4     6 ar  
     8     4    17 1   
     9     5    14 ar  
    10     5    18 1   
    11     6    14 ar  
    12     6    19 1   
    13     7     8 1   
    14     7    15 2   
    15     7    20 1   
    16     8     9 2   
    17     9    12 1   
    18    10    13 1   
    19    10    14 1   
    20    10    21 1   
    21    11    13 1   
    22    11    15 1   
    23    11    22 1   
    24    12    15 1   
@<TRIPOS>SUBSTRUCTURE
     1 WA1         1 TEMP              0 ****  ****    0 ROOT
