@<TRIPOS>MOLECULE
WA2
   31    32     1     0     0
SMALL
abcg2


@<TRIPOS>ATOM
      1 N1           1.2490     1.5430    -0.0020 nb         1 WA2      -0.277000
      2 C2           2.4580     2.1120    -0.0040 ca         1 WA2       0.151900
      3 N3           3.6370     1.5320    -0.0030 nb         1 WA2      -0.155000
      4 C4           3.5640     0.1920    -0.0030 ca         1 WA2       0.256000
      5 C5           2.3630    -0.5080    -0.0040 ca         1 WA2      -0.266200
      6 C6           1.1570     0.2130    -0.0020 ca         1 WA2       0.418900
      7 N6          -0.0510    -0.3640    -0.0070 nu         1 WA2      -0.938100
      8 N7           2.7180    -1.8310    -0.0060 na         1 WA2      -0.295600
      9 C8           4.0650    -1.8640    -0.0060 cc         1 WA2       0.427700
     10 N9           4.6170    -0.6760    -0.0040 nd         1 WA2      -0.639700
     11 CAA         -4.0960     1.1500    -0.9650 c3         1 WA2      -0.086100
     12 CAE         -4.9100    -0.9570     0.1480 c3         1 WA2       0.165600
     13 CAF         -1.2920     0.3810     0.0390 c3         1 WA2       0.237800
     14 CAG         -2.4710    -0.5750    -0.0590 c3         1 WA2      -0.097400
     15 CAP         -3.8250     0.1120     0.1200 c3         1 WA2      -0.057700
     16 H2           2.4540     3.1970    -0.0040 h5         1 WA2       0.048100
     17 HN6         -0.1050    -1.3660     0.0660 hn         1 WA2       0.485000
     18 H8           4.6010    -2.8000    -0.0080 h5         1 WA2       0.064800
     19 HAAA        -5.0780     1.6050    -0.8430 hc         1 WA2       0.040367
     20 HAAB        -3.3630     1.9570    -0.9490 hc         1 WA2       0.040367
     21 HOAB        -6.8350    -1.0420     0.3560 ho         1 WA2       0.444000
     22 HAE         -4.6610    -1.7010     0.9170 h1         1 WA2       0.015200
     23 HAEA        -4.9100    -1.4850    -0.8160 h1         1 WA2       0.015200
     24 HAF         -1.3550     0.9580     0.9680 h1         1 WA2       0.060700
     25 HAFA        -1.3070     1.1020    -0.7800 h1         1 WA2       0.060700
     26 HAG         -2.4440    -1.0880    -1.0270 hc         1 WA2       0.040700
     27 HAGA        -2.3610    -1.3470     0.7100 hc         1 WA2       0.040700
     28 HAP         -3.8220     0.6140     1.0960 hc         1 WA2       0.063700
     29 HN7          2.1140    -2.6380    -0.0140 hn         1 WA2       0.355000
     30 HAA         -4.0620     0.6900    -1.9560 hc         1 WA2       0.040367
     31 OAB         -6.1600    -0.3590     0.4080 oh         1 WA2      -0.658000
@<TRIPOS>BOND
     1     1     2 ar  
     2     1     6 ar  
     3     2     3 ar  
     4     2    16 1   
     5     3     4 ar  
     6     4     5 ar  
     7     4    10 1   
     8     5     6 ar  
     9     5     8 1   
    10     6     7 1   
    11     7    13 1   
    12     7    17 1   
    13     8     9 1   
    14     8    29 1   
    15     9    10 2   
    16     9    18 1   
    17    11    15 1   
    18    11    19 1   
    19    11    20 1   
    20    11    30 1   
    21    12    15 1   
    22    12    22 1   
    23    12    23 1   
    24    12    31 1   
    25    13    14 1   
    26    13    24 1   
    27    13    25 1   
    28    14    15 1   
    29    14    26 1   
    30    14    27 1   
    31    15    28 1   
    32    21    31 1   
@<TRIPOS>SUBSTRUCTURE
     1 WA2         1 TEMP              0 ****  ****    0 ROOT
