@<TRIPOS>MOLECULE
WA2
   31    32     1     0     0
SMALL
No Charge or Current Charge


@<TRIPOS>ATOM
      1 N1           1.3620     1.6770     0.1000 nb         1 WA2      -0.277000
      2 C2           2.6170     2.1900     0.1380 ca         1 WA2       0.151900
      3 N3           3.7800     1.4950     0.1130 nb         1 WA2      -0.155000
      4 C4           3.6620     0.1560     0.0440 ca         1 WA2       0.256000
      5 C5           2.4320    -0.4420     0.0020 ca         1 WA2      -0.266200
      6 C6           1.2670     0.3350     0.0310 ca         1 WA2       0.418900
      7 N6           0.0010    -0.2350    -0.0110 nu         1 WA2      -0.938100
      8 N7           2.6330    -1.7960    -0.0650 na         1 WA2      -0.295600
      9 C8           4.0090    -1.9940    -0.0620 cc         1 WA2       0.427700
     10 N9           4.6640    -0.8150     0.0040 nd         1 WA2      -0.639700
     11 CAA         -4.1760     1.0780    -1.0890 c3         1 WA2      -0.086100
     12 CAE         -4.9520    -1.0130     0.1900 c3         1 WA2       0.165600
     13 CAF         -1.2900     0.4720     0.0040 c3         1 WA2       0.237800
     14 CAG         -2.4560    -0.5400    -0.0490 c3         1 WA2      -0.097400
     15 CAP         -3.8710     0.0940     0.0720 c3         1 WA2      -0.057700
     16 H2           2.6990     3.2740     0.1940 h5         1 WA2       0.048100
     17 HN6         -0.0230    -1.2510    -0.0670 hn         1 WA2       0.485000
     18 H8           4.4560    -2.9810    -0.1080 h5         1 WA2       0.064800
     19 HAAA        -5.1810     1.5050    -0.9900 hc         1 WA2       0.040367
     20 HAAB        -3.4700     1.9160    -1.0980 hc         1 WA2       0.040367
     21 HOAB        -6.8620    -1.1940     0.5880 ho         1 WA2       0.444000
     22 HAE         -4.6510    -1.7290     0.9670 h1         1 WA2       0.015200
     23 HAEA        -5.0180    -1.5600    -0.7590 h1         1 WA2       0.015200
     24 HAF         -1.3770     1.0770     0.9180 h1         1 WA2       0.060700
     25 HAFA        -1.3490     1.1520    -0.8580 h1         1 WA2       0.060700
     26 HAG         -2.3950    -1.1120    -0.9840 hc         1 WA2       0.040700
     27 HAGA        -2.3250    -1.2580     0.7700 hc         1 WA2       0.040700
     28 HAP         -3.8930     0.6680     1.0080 hc         1 WA2       0.063700
     29 HN7          1.9380    -2.5310    -0.1090 hn         1 WA2       0.355000
     30 HAA         -4.1180     0.5670    -2.0580 hc         1 WA2       0.040367
     31 OAB         -6.2250    -0.4480     0.5290 oh         1 WA2      -0.658000
@<TRIPOS>BOND
     1     1     2 ar  
     2     1     6 ar  
     3     2     3 ar  
     4     2    16 1   
     5     3     4 ar  
     6     4     5 ar  
     7     4    10 1   
     8     5     6 ar  
     9     5     8 1   
    10     6     7 1   
    11     7    13 1   
    12     7    17 1   
    13     8     9 1   
    14     8    29 1   
    15     9    10 2   
    16     9    18 1   
    17    11    15 1   
    18    11    19 1   
    19    11    20 1   
    20    11    30 1   
    21    12    15 1   
    22    12    22 1   
    23    12    23 1   
    24    12    31 1   
    25    13    14 1   
    26    13    24 1   
    27    13    25 1   
    28    14    15 1   
    29    14    26 1   
    30    14    27 1   
    31    15    28 1   
    32    21    31 1   
@<TRIPOS>SUBSTRUCTURE
     1 WA2         1 TEMP              0 ****  ****    0 ROOT
