@<TRIPOS>MOLECULE
WA3
  147   154     1     0     0
SMALL
No Charge or Current Charge


@<TRIPOS>ATOM
      1 C1          66.4960    28.7750    12.8550 c6         1 WA3       0.283300
      2 N1          71.7510    30.3240    11.4710 na         1 WA3       0.122800
      3 S1          65.0200    28.3520    11.8290 ss         1 WA3      -0.319500
      4 C2          66.1290    29.1390    14.3300 c6         1 WA3       0.139800
      5 N2          71.5730    31.6510    11.7290 nc         1 WA3      -0.187800
      6 O2          65.2570    30.2930    14.4140 oh         1 WA3      -0.717000
      7 S2          69.6820    30.3000     7.4160 ss         1 WA3      -0.398000
      8 C3          67.4380    29.4050    15.1410 c6         1 WA3       0.133300
      9 N3          71.2400    32.2100    10.5960 nd         1 WA3      -0.349500
     10 O3          67.1200    29.6500    16.5240 oh         1 WA3      -0.660000
     11 S3          76.0270    31.9060    24.8790 ss         1 WA3      -0.398000
     12 C4          68.4350    28.2120    15.0160 c6         1 WA3       0.141300
     13 N4          75.8460    30.4230    20.4670 na         1 WA3       0.122800
     14 O4          67.9120    27.0850    15.7460 oh         1 WA3      -0.711000
     15 S4          77.6080    36.3670    29.5000 ss         1 WA3      -0.319500
     16 C5          68.6570    27.8970    13.5000 c6         1 WA3       0.140300
     17 N5          74.6350    29.9010    20.8130 nc         1 WA3      -0.187800
     18 O5          67.3920    27.6440    12.8390 os         1 WA3      -0.427500
     19 C6          69.5980    26.6720    13.2650 c3         1 WA3       0.169600
     20 N6          74.2360    30.5550    21.8720 nd         1 WA3      -0.349500
     21 O6          69.8790    26.4390    11.8690 oh         1 WA3      -0.724500
     22 C7          65.8950    28.0160    10.2400 c6         1 WA3       0.278300
     23 C8          64.9330    27.6070     9.0830 c6         1 WA3       0.125800
     24 O8          64.1800    26.4080     9.3880 oh         1 WA3      -0.715500
     25 C9          65.7620    27.3950     7.7800 c6         1 WA3       0.138800
     26 O9          64.8640    27.0670     6.7020 oh         1 WA3      -0.657500
     27 C10         66.6400    28.6560     7.4580 c6         1 WA3       0.150300
     28 O10         67.5020    28.4080     6.3230 oh         1 WA3      -0.712500
     29 C11         67.4710    29.0500     8.7270 c6         1 WA3       0.156300
     30 O11         66.6000    29.2140     9.8650 os         1 WA3      -0.453500
     31 C12         68.2380    30.3930     8.5810 c3         1 WA3       0.056100
     32 C13         70.8130    31.5560     8.1850 c3         1 WA3       0.049300
     33 C14         71.1990    31.2440     9.6110 cd         1 WA3       0.198800
     34 C15         71.5170    30.0310    10.1520 cc         1 WA3      -0.186500
     35 C16         72.0940    29.3860    12.5500 c3         1 WA3       0.095100
     36 C17         73.5670    29.4230    13.0360 c6         1 WA3       0.154800
     37 O17         73.5760    28.7740    14.3350 os         1 WA3      -0.470500
     38 C18         74.5620    28.6930    12.0770 c6         1 WA3       0.135800
     39 O18         74.6490    29.3170    10.7860 oh         1 WA3      -0.720000
     40 C19         75.9760    28.6680    12.7230 c6         1 WA3       0.118800
     41 O19         76.9060    27.9670    11.8750 oh         1 WA3      -0.672000
     42 C20         75.9180    28.0090    14.1320 c6         1 WA3       0.139800
     43 O20         77.2490    27.9970    14.7150 oh         1 WA3      -0.707000
     44 C21         74.8550    28.7630    15.0120 c6         1 WA3       0.370300
     45 O21         75.2520    30.1190    15.2780 os         1 WA3      -0.481000
     46 C22         74.4810    30.7710    16.3050 c6         1 WA3       0.370300
     47 C23         74.6330    32.3320    16.2460 c6         1 WA3       0.139800
     48 O23         74.2500    32.8880    14.9670 oh         1 WA3      -0.707000
     49 C24         76.1000    32.7350    16.5790 c6         1 WA3       0.118800
     50 O24         76.2370    34.1740    16.5720 oh         1 WA3      -0.672000
     51 C25         76.5030    32.1410    17.9640 c6         1 WA3       0.135800
     52 O25         77.8690    32.4720    18.2840 oh         1 WA3      -0.720000
     53 C26         76.2860    30.5940    17.9440 c6         1 WA3       0.154800
     54 O26         74.9140    30.2780    17.5930 os         1 WA3      -0.470500
     55 C27         76.5960    29.9100    19.3070 c3         1 WA3       0.095100
     56 C28         76.2300    31.4190    21.3300 cc         1 WA3      -0.186500
     57 C29         75.1910    31.4900    22.2140 cd         1 WA3       0.198800
     58 C30         75.0400    32.4160    23.3950 c3         1 WA3       0.049300
     59 C31         75.6330    33.3120    26.0250 c3         1 WA3       0.056100
     60 C32         76.2750    33.1730    27.4370 c6         1 WA3       0.156300
     61 O32         76.5310    34.5200    27.9020 os         1 WA3      -0.453500
     62 C33         75.3700    32.4260    28.4740 c6         1 WA3       0.150300
     63 O33         75.1130    31.0580    28.1110 oh         1 WA3      -0.712500
     64 C34         76.0500    32.4690    29.8750 c6         1 WA3       0.138800
     65 O34         75.2150    31.8430    30.8660 oh         1 WA3      -0.657500
     66 C35         76.3680    33.9360    30.2830 c6         1 WA3       0.125800
     67 O35         77.0250    33.9570    31.5730 oh         1 WA3      -0.715500
     68 C36         77.2330    34.5930    29.1610 c6         1 WA3       0.278300
     69 C37         78.7030    36.6920    28.0480 c6         1 WA3       0.283300
     70 C38         79.1850    38.1770    27.9580 c6         1 WA3       0.139800
     71 O38         78.0920    39.1090    27.7840 oh         1 WA3      -0.717000
     72 C39         80.1940    38.3350    26.7770 c6         1 WA3       0.133300
     73 O39         80.7390    39.6660    26.7620 oh         1 WA3      -0.660000
     74 C40         81.3480    37.2950    26.8850 c6         1 WA3       0.141300
     75 O40         82.1780    37.5980    28.0250 oh         1 WA3      -0.711000
     76 C41         80.7370    35.8620    27.0190 c6         1 WA3       0.140300
     77 O41         79.8440    35.8120    28.1580 os         1 WA3      -0.427500
     78 C42         81.8400    34.7710    27.2220 c3         1 WA3       0.169600
     79 O42         82.6280    34.9810    28.4180 oh         1 WA3      -0.724500
     80 HC1         66.9810    29.6380    12.3730 h2         1 WA3       0.072200
     81 HC2         65.6280    28.2610    14.7650 h1         1 WA3       0.080700
     82 HO2         64.4520    30.0870    13.8820 ho         1 WA3       0.521000
     83 HC3         67.9240    30.2950    14.7130 h1         1 WA3       0.046200
     84 HO3         66.3520    30.2670    16.5040 ho         1 WA3       0.457000
     85 HC4         69.3990    28.5200    15.4500 h1         1 WA3       0.044200
     86 HO4         67.5090    27.4860    16.5540 ho         1 WA3       0.528000
     87 HC5         69.1270    28.7700    13.0230 h1         1 WA3       0.049200
     88 HC6B        69.1240    25.7850    13.7060 h1         1 WA3       0.042450
     89 HC6A        70.5340    26.8470    13.8130 h1         1 WA3       0.042450
     90 HO6         70.2630    25.5340    11.8000 ho         1 WA3       0.508500
     91 HC7         66.6110    27.2030    10.4340 h2         1 WA3       0.082700
     92 HC8         64.2430    28.4490     8.9180 h1         1 WA3       0.067700
     93 HO8         63.6940    26.5780    10.2300 ho         1 WA3       0.516500
     94 HC9         66.4460    26.5510     7.9570 h1         1 WA3       0.057200
     95 HO9         64.2000    26.4650     7.1110 ho         1 WA3       0.454000
     96 HC10        65.9610    29.4930     7.2320 h1         1 WA3       0.061700
     97 HO10        68.2570    29.0420     6.3990 ho         1 WA3       0.520500
     98 HC11        68.1990    28.2580     8.9600 h1         1 WA3       0.059700
     99 H12A        67.5470    31.1770     8.2460 h1         1 WA3       0.080450
    100 H12B        68.6030    30.6750     9.5770 h1         1 WA3       0.080450
    101 H13B        71.7270    31.6200     7.5820 h1         1 WA3       0.074950
    102 H13A        70.3220    32.5370     8.1530 h1         1 WA3       0.074950
    103 HC15        71.5880    29.0400     9.7260 h4         1 WA3       0.166500
    104 H1          71.4460    29.6130    13.4040 h1         1 WA3       0.078950
    105 H2          71.8590    28.3690    12.2160 h1         1 WA3       0.078950
    106 HC17        73.8670    30.4740    13.1590 h1         1 WA3       0.088700
    107 HC18        74.2210    27.6530    11.9620 h1         1 WA3       0.058700
    108 HO18        75.5110    29.0030    10.4190 ho         1 WA3       0.521000
    109 HC19        76.3080    29.7100    12.8570 h1         1 WA3       0.077200
    110 HO19        77.6680    27.7510    12.4630 ho         1 WA3       0.459000
    111 HC20        75.5610    26.9750    14.0060 h1         1 WA3       0.066200
    112 HO20        77.2140    27.4360    15.5260 ho         1 WA3       0.517000
    113 HC21        74.7520    28.2200    15.9650 h2         1 WA3       0.094700
    114 HC22        73.4140    30.5360    16.1660 h2         1 WA3       0.094700
    115 HC23        73.9840    32.7470    17.0320 h1         1 WA3       0.066200
    116 HO23        74.6020    33.8100    14.9750 ho         1 WA3       0.517000
    117 HC24        76.7540    32.2880    15.8130 h1         1 WA3       0.077200
    118 HO24        77.0710    34.3870    16.0940 ho         1 WA3       0.459000
    119 HC25        75.8300    32.5700    18.7230 h1         1 WA3       0.058700
    120 HO25        77.9180    33.4580    18.2910 ho         1 WA3       0.521000
    121 HC26        76.9550    30.1500    17.1920 h1         1 WA3       0.088700
    122 H3          76.3960    28.8360    19.2090 h1         1 WA3       0.078950
    123 H4          77.6660    30.0230    19.5160 h1         1 WA3       0.078950
    124 HC28        77.1580    31.9690    21.2520 h4         1 WA3       0.166500
    125 H30B        75.3530    33.4220    23.0910 h1         1 WA3       0.074950
    126 H30A        73.9800    32.4670    23.6760 h1         1 WA3       0.074950
    127 H31A        76.0040    34.2350    25.5620 h1         1 WA3       0.080450
    128 H31B        74.5440    33.4040    26.1310 h1         1 WA3       0.080450
    129 HC32        77.2400    32.6550    27.3340 h1         1 WA3       0.059700
    130 HC33        74.4180    32.9740    28.5430 h1         1 WA3       0.061700
    131 HO33        74.8210    30.6270    28.9510 ho         1 WA3       0.520500
    132 HC34        77.0070    31.9270    29.8050 h1         1 WA3       0.057200
    133 HO34        75.5640    32.1680    31.7290 ho         1 WA3       0.454000
    134 HC35        75.4190    34.4920    30.3390 h1         1 WA3       0.067700
    135 HO35        77.2360    34.9000    31.7740 ho         1 WA3       0.516500
    136 HC36        78.1980    34.0690    29.0840 h2         1 WA3       0.082700
    137 HC37        78.1220    36.4390    27.1480 h2         1 WA3       0.072200
    138 HC38        79.7170    38.4010    28.8950 h1         1 WA3       0.080700
    139 HO38        78.5130    39.9370    27.4460 ho         1 WA3       0.521000
    140 HC39        79.6530    38.1450    25.8360 h1         1 WA3       0.046200
    141 HO39        81.5630    39.5960    27.3000 ho         1 WA3       0.457000
    142 HC40        81.9490    37.3320    25.9640 h1         1 WA3       0.044200
    143 HO40        82.4320    36.6940    28.3740 ho         1 WA3       0.528000
    144 HC41        80.1690    35.6150    26.1100 h1         1 WA3       0.049200
    145 H42A        81.3410    33.7930    27.2640 h1         1 WA3       0.042450
    146 H42B        82.4900    34.7660    26.3360 h1         1 WA3       0.042450
    147 HO42        83.1140    34.1390    28.5930 ho         1 WA3       0.508500
@<TRIPOS>BOND
     1     1     3 1   
     2     1     4 1   
     3     1    18 1   
     4     1    80 1   
     5     2     5 1   
     6     2    34 1   
     7     2    35 1   
     8     3    22 1   
     9     4     6 1   
    10     4     8 1   
    11     4    81 1   
    12     5     9 2   
    13     6    82 1   
    14     7    31 1   
    15     7    32 1   
    16     8    10 1   
    17     8    12 1   
    18     8    83 1   
    19     9    33 1   
    20    10    84 1   
    21    11    58 1   
    22    11    59 1   
    23    12    14 1   
    24    12    16 1   
    25    12    85 1   
    26    13    17 1   
    27    13    55 1   
    28    13    56 1   
    29    14    86 1   
    30    15    68 1   
    31    15    69 1   
    32    16    18 1   
    33    16    19 1   
    34    16    87 1   
    35    17    20 2   
    36    19    21 1   
    37    19    88 1   
    38    19    89 1   
    39    20    57 1   
    40    21    90 1   
    41    22    23 1   
    42    22    30 1   
    43    22    91 1   
    44    23    24 1   
    45    23    25 1   
    46    23    92 1   
    47    24    93 1   
    48    25    26 1   
    49    25    27 1   
    50    25    94 1   
    51    26    95 1   
    52    27    28 1   
    53    27    29 1   
    54    27    96 1   
    55    28    97 1   
    56    29    30 1   
    57    29    31 1   
    58    29    98 1   
    59    31    99 1   
    60    31   100 1   
    61    32    33 1   
    62    32   101 1   
    63    32   102 1   
    64    33    34 2   
    65    34   103 1   
    66    35    36 1   
    67    35   104 1   
    68    35   105 1   
    69    36    37 1   
    70    36    38 1   
    71    36   106 1   
    72    37    44 1   
    73    38    39 1   
    74    38    40 1   
    75    38   107 1   
    76    39   108 1   
    77    40    41 1   
    78    40    42 1   
    79    40   109 1   
    80    41   110 1   
    81    42    43 1   
    82    42    44 1   
    83    42   111 1   
    84    43   112 1   
    85    44    45 1   
    86    44   113 1   
    87    45    46 1   
    88    46    47 1   
    89    46    54 1   
    90    46   114 1   
    91    47    48 1   
    92    47    49 1   
    93    47   115 1   
    94    48   116 1   
    95    49    50 1   
    96    49    51 1   
    97    49   117 1   
    98    50   118 1   
    99    51    52 1   
   100    51    53 1   
   101    51   119 1   
   102    52   120 1   
   103    53    54 1   
   104    53    55 1   
   105    53   121 1   
   106    55   122 1   
   107    55   123 1   
   108    56    57 2   
   109    56   124 1   
   110    57    58 1   
   111    58   125 1   
   112    58   126 1   
   113    59    60 1   
   114    59   127 1   
   115    59   128 1   
   116    60    61 1   
   117    60    62 1   
   118    60   129 1   
   119    61    68 1   
   120    62    63 1   
   121    62    64 1   
   122    62   130 1   
   123    63   131 1   
   124    64    65 1   
   125    64    66 1   
   126    64   132 1   
   127    65   133 1   
   128    66    67 1   
   129    66    68 1   
   130    66   134 1   
   131    67   135 1   
   132    68   136 1   
   133    69    70 1   
   134    69    77 1   
   135    69   137 1   
   136    70    71 1   
   137    70    72 1   
   138    70   138 1   
   139    71   139 1   
   140    72    73 1   
   141    72    74 1   
   142    72   140 1   
   143    73   141 1   
   144    74    75 1   
   145    74    76 1   
   146    74   142 1   
   147    75   143 1   
   148    76    77 1   
   149    76    78 1   
   150    76   144 1   
   151    78    79 1   
   152    78   145 1   
   153    78   146 1   
   154    79   147 1   
@<TRIPOS>SUBSTRUCTURE
     1 WA3         1 TEMP              0 ****  ****    0 ROOT
