@<TRIPOS>MOLECULE
WA3
  147   154     1     0     0
SMALL
abcg2


@<TRIPOS>ATOM
      1 C1          64.8010    25.9400    12.6810 c6         1 WA3       0.283300
      2 N1          73.3630    28.9170    11.7390 na         1 WA3       0.122800
      3 S1          64.8500    27.6960    12.2330 ss         1 WA3      -0.319500
      4 C2          64.5170    25.7870    14.1800 c6         1 WA3       0.139800
      5 N2          72.2750    29.6440    12.0250 nc         1 WA3      -0.187800
      6 O2          65.5740    26.3060    14.9810 oh         1 WA3      -0.717000
      7 S2          70.4860    26.7840     8.8050 ss         1 WA3      -0.398000
      8 C3          64.4070    24.3020    14.5110 c6         1 WA3       0.133300
      9 N3          71.4610    29.5470    11.0070 nd         1 WA3      -0.349500
     10 O3          63.9890    24.1100    15.8570 oh         1 WA3      -0.660000
     11 S3          76.4780    34.2300    23.9300 ss         1 WA3      -0.398000
     12 C4          63.4050    23.5880    13.6090 c6         1 WA3       0.141300
     13 N4          77.9910    33.3010    19.4460 na         1 WA3       0.122800
     14 O4          62.0720    24.0050    13.8890 oh         1 WA3      -0.711000
     15 S4          78.0990    36.8490    29.7580 ss         1 WA3      -0.319500
     16 C5          63.7330    23.8900    12.1510 c6         1 WA3       0.140300
     17 N5          77.0960    32.5000    20.0340 nc         1 WA3      -0.187800
     18 O5          63.7850    25.3060    11.9260 os         1 WA3      -0.427500
     19 C6          62.7240    23.3060    11.1900 c3         1 WA3       0.169600
     20 N6          76.8510    32.9950    21.2220 nd         1 WA3      -0.349500
     21 O6          63.2610    23.3850     9.8690 oh         1 WA3      -0.724500
     22 C7          65.6410    27.5680    10.6110 c6         1 WA3       0.278300
     23 C8          65.3450    28.8170     9.7810 c6         1 WA3       0.125800
     24 O8          63.9690    28.9350     9.4410 oh         1 WA3      -0.715500
     25 C9          66.0950    28.7280     8.4580 c6         1 WA3       0.138800
     26 O9          65.9720    29.9470     7.7330 oh         1 WA3      -0.657500
     27 C10         67.5770    28.4260     8.6330 c6         1 WA3       0.150300
     28 O10         68.0930    28.1530     7.3340 oh         1 WA3      -0.712500
     29 C11         67.7750    27.2380     9.5870 c6         1 WA3       0.156300
     30 O11         67.0410    27.4530    10.7990 os         1 WA3      -0.453500
     31 C12         69.2040    27.0280    10.0850 c3         1 WA3       0.056100
     32 C13         71.3320    28.4230     8.7860 c3         1 WA3       0.049300
     33 C14         72.0250    28.7540    10.0540 cd         1 WA3       0.198800
     34 C15         73.2520    28.3440    10.5260 cc         1 WA3      -0.186500
     35 C16         74.4720    28.8390    12.6740 c3         1 WA3       0.095100
     36 C17         75.2620    30.1380    12.8170 c6         1 WA3       0.154800
     37 O17         76.1560    29.8540    13.9000 os         1 WA3      -0.470500
     38 C18         76.0560    30.5410    11.5770 c6         1 WA3       0.135800
     39 O18         75.1360    30.9450    10.5690 oh         1 WA3      -0.720000
     40 C19         77.0190    31.6770    11.9010 c6         1 WA3       0.118800
     41 O19         77.8020    31.8940    10.7290 oh         1 WA3      -0.672000
     42 C20         77.8860    31.3270    13.0990 c6         1 WA3       0.139800
     43 O20         78.7020    32.4550    13.3920 oh         1 WA3      -0.707000
     44 C21         76.9980    30.9240    14.2760 c6         1 WA3       0.370300
     45 O21         76.2630    32.0530    14.6780 os         1 WA3      -0.481000
     46 C22         75.6720    31.9630    15.9560 c6         1 WA3       0.370300
     47 C23         74.7010    33.1270    16.1040 c6         1 WA3       0.139800
     48 O23         73.7270    33.0590    15.0770 oh         1 WA3      -0.707000
     49 C24         75.4630    34.4440    16.0860 c6         1 WA3       0.118800
     50 O24         74.5110    35.4840    16.3260 oh         1 WA3      -0.672000
     51 C25         76.5490    34.4300    17.1580 c6         1 WA3       0.135800
     52 O25         77.4000    35.5700    17.0670 oh         1 WA3      -0.720000
     53 C26         77.4340    33.1940    17.0010 c6         1 WA3       0.154800
     54 O26         76.6370    32.0050    16.9850 os         1 WA3      -0.470500
     55 C27         78.4850    33.0530    18.0960 c3         1 WA3       0.095100
     56 C28         78.3300    34.3220    20.2620 cc         1 WA3      -0.186500
     57 C29         77.5920    34.1170    21.4060 cd         1 WA3       0.198800
     58 C30         77.5760    34.9340    22.6540 c3         1 WA3       0.049300
     59 C31         76.8530    35.4840    25.2000 c3         1 WA3       0.056100
     60 C32         76.4630    35.0710    26.6100 c6         1 WA3       0.156300
     61 O32         77.1500    35.9940    27.4670 os         1 WA3      -0.453500
     62 C33         74.9730    35.1660    26.9130 c6         1 WA3       0.150300
     63 O33         74.2800    34.2040    26.1280 oh         1 WA3      -0.712500
     64 C34         74.7250    34.9220    28.3940 c6         1 WA3       0.138800
     65 O34         73.3290    35.1210    28.6180 oh         1 WA3      -0.657500
     66 C35         75.5710    35.8310    29.2860 c6         1 WA3       0.125800
     67 O35         75.4480    35.4330    30.6460 oh         1 WA3      -0.715500
     68 C36         77.0320    35.7000    28.8540 c6         1 WA3       0.278300
     69 C37         79.6950    36.0900    29.3540 c6         1 WA3       0.283300
     70 C38         80.8380    37.0530    29.6830 c6         1 WA3       0.139800
     71 O38         80.7200    38.1970    28.8490 oh         1 WA3      -0.717000
     72 C39         82.1680    36.3460    29.4360 c6         1 WA3       0.133300
     73 O39         83.1950    37.2660    29.7960 oh         1 WA3      -0.660000
     74 C40         82.2470    35.0250    30.2010 c6         1 WA3       0.141300
     75 O40         82.3070    35.2980    31.5960 oh         1 WA3      -0.711000
     76 C41         81.0280    34.1810    29.8060 c6         1 WA3       0.140300
     77 O41         79.8180    34.8910    30.1000 os         1 WA3      -0.427500
     78 C42         80.9530    32.8220    30.4680 c3         1 WA3       0.169600
     79 O42         80.9200    32.9680    31.8960 oh         1 WA3      -0.724500
     80 HC1         65.7780    25.5040    12.4450 h2         1 WA3       0.072200
     81 HC2         63.5720    26.2830    14.4140 h1         1 WA3       0.080700
     82 HO2         65.3670    27.2140    15.2290 ho         1 WA3       0.521000
     83 HC3         65.3950    23.8490    14.3530 h1         1 WA3       0.046200
     84 HO3         64.5290    24.6850    16.4170 ho         1 WA3       0.457000
     85 HC4         63.5000    22.5080    13.7700 h1         1 WA3       0.044200
     86 HO4         61.9780    24.0130    14.8510 ho         1 WA3       0.528000
     87 HC5         64.7190    23.4570    11.9330 h1         1 WA3       0.049200
     88 HC6B        61.7850    23.8580    11.2660 h1         1 WA3       0.042450
     89 HC6A        62.5390    22.2630    11.4720 h1         1 WA3       0.042450
     90 HO6         62.5620    23.1560     9.2450 ho         1 WA3       0.508500
     91 HC7         65.2480    26.6810    10.1040 h2         1 WA3       0.082700
     92 HC8         65.6870    29.7010    10.3320 h1         1 WA3       0.067700
     93 HO8         63.4680    29.1780    10.2290 ho         1 WA3       0.516500
     94 HC9         65.6530    27.9040     7.8820 h1         1 WA3       0.057200
     95 HO9         65.0280    30.1400     7.6560 ho         1 WA3       0.454000
     96 HC10        68.0680    29.3090     9.0620 h1         1 WA3       0.061700
     97 HO10        68.9510    27.7020     7.4410 ho         1 WA3       0.520500
     98 HC11        67.4050    26.3310     9.0920 h1         1 WA3       0.059700
     99 H12A        69.5010    27.8810    10.6930 h1         1 WA3       0.080450
    100 H12B        69.2180    26.1450    10.7230 h1         1 WA3       0.080450
    101 H13B        72.0370    28.3440     7.9600 h1         1 WA3       0.074950
    102 H13A        70.6020    29.1930     8.5440 h1         1 WA3       0.074950
    103 HC15        74.0230    27.7220    10.1060 h4         1 WA3       0.166500
    104 H1          74.0720    28.5720    13.6510 h1         1 WA3       0.078950
    105 H2          75.1290    28.0390    12.3370 h1         1 WA3       0.078950
    106 HC17        74.5870    30.9520    13.0930 h1         1 WA3       0.088700
    107 HC18        76.6410    29.6770    11.2360 h1         1 WA3       0.058700
    108 HO18        75.6530    31.2920     9.8300 ho         1 WA3       0.521000
    109 HC19        76.4370    32.5750    12.1310 h1         1 WA3       0.077200
    110 HO19        78.3580    32.6690    10.8830 ho         1 WA3       0.459000
    111 HC20        78.5060    30.4610    12.8500 h1         1 WA3       0.066200
    112 HO20        79.4580    32.1650    13.9180 ho         1 WA3       0.517000
    113 HC21        77.5940    30.5390    15.1050 h2         1 WA3       0.094700
    114 HC22        75.1590    31.0070    16.0750 h2         1 WA3       0.094700
    115 HC23        74.2250    33.0140    17.0860 h1         1 WA3       0.066200
    116 HO23        73.2000    33.8680    15.1370 ho         1 WA3       0.517000
    117 HC24        75.9270    34.5830    15.1060 h1         1 WA3       0.077200
    118 HO24        74.7930    36.2810    15.8600 ho         1 WA3       0.459000
    119 HC25        76.0590    34.4020    18.1360 h1         1 WA3       0.058700
    120 HO25        76.9160    36.3380    17.3950 ho         1 WA3       0.521000
    121 HC26        77.9780    33.2730    16.0550 h1         1 WA3       0.088700
    122 H3          78.9260    32.0570    18.0580 h1         1 WA3       0.078950
    123 H4          79.2680    33.7850    17.9210 h1         1 WA3       0.078950
    124 HC28        79.0380    35.0800    19.9770 h4         1 WA3       0.166500
    125 H30B        78.5830    35.0000    23.0680 h1         1 WA3       0.074950
    126 H30A        77.2410    35.9500    22.4350 h1         1 WA3       0.074950
    127 H31A        77.9340    35.6330    25.1970 h1         1 WA3       0.080450
    128 H31B        76.3730    36.4280    24.9360 h1         1 WA3       0.080450
    129 HC32        76.8130    34.0510    26.8150 h1         1 WA3       0.059700
    130 HC33        74.6360    36.1790    26.6580 h1         1 WA3       0.061700
    131 HO33        73.3720    34.1690    26.4600 ho         1 WA3       0.520500
    132 HC34        74.9910    33.8840    28.6210 h1         1 WA3       0.057200
    133 HO34        73.0700    34.6420    29.4140 ho         1 WA3       0.454000
    134 HC35        75.2480    36.8680    29.1550 h1         1 WA3       0.067700
    135 HO35        74.6950    35.8930    31.0340 ho         1 WA3       0.516500
    136 HC36        77.3880    34.6840    29.0560 h2         1 WA3       0.082700
    137 HC37        79.7110    35.8700    28.2810 h2         1 WA3       0.072200
    138 HC38        80.7750    37.3340    30.7390 h1         1 WA3       0.080700
    139 HO38        81.5520    38.6840    28.9260 ho         1 WA3       0.521000
    140 HC39        82.2360    36.1170    28.3660 h1         1 WA3       0.046200
    141 HO39        84.0160    36.9970    29.3660 ho         1 WA3       0.457000
    142 HC40        83.1480    34.4850    29.8790 h1         1 WA3       0.044200
    143 HO40        81.9600    34.5100    32.0490 ho         1 WA3       0.528000
    144 HC41        81.0860    34.0010    28.7240 h1         1 WA3       0.049200
    145 H42A        80.0520    32.3070    30.1240 h1         1 WA3       0.042450
    146 H42B        81.8270    32.2430    30.1610 h1         1 WA3       0.042450
    147 HO42        81.1540    32.1240    32.3000 ho         1 WA3       0.508500
@<TRIPOS>BOND
     1     1     3 1   
     2     1     4 1   
     3     1    18 1   
     4     1    80 1   
     5     2     5 1   
     6     2    34 1   
     7     2    35 1   
     8     3    22 1   
     9     4     6 1   
    10     4     8 1   
    11     4    81 1   
    12     5     9 2   
    13     6    82 1   
    14     7    31 1   
    15     7    32 1   
    16     8    10 1   
    17     8    12 1   
    18     8    83 1   
    19     9    33 1   
    20    10    84 1   
    21    11    58 1   
    22    11    59 1   
    23    12    14 1   
    24    12    16 1   
    25    12    85 1   
    26    13    17 1   
    27    13    55 1   
    28    13    56 1   
    29    14    86 1   
    30    15    68 1   
    31    15    69 1   
    32    16    18 1   
    33    16    19 1   
    34    16    87 1   
    35    17    20 2   
    36    19    21 1   
    37    19    88 1   
    38    19    89 1   
    39    20    57 1   
    40    21    90 1   
    41    22    23 1   
    42    22    30 1   
    43    22    91 1   
    44    23    24 1   
    45    23    25 1   
    46    23    92 1   
    47    24    93 1   
    48    25    26 1   
    49    25    27 1   
    50    25    94 1   
    51    26    95 1   
    52    27    28 1   
    53    27    29 1   
    54    27    96 1   
    55    28    97 1   
    56    29    30 1   
    57    29    31 1   
    58    29    98 1   
    59    31    99 1   
    60    31   100 1   
    61    32    33 1   
    62    32   101 1   
    63    32   102 1   
    64    33    34 2   
    65    34   103 1   
    66    35    36 1   
    67    35   104 1   
    68    35   105 1   
    69    36    37 1   
    70    36    38 1   
    71    36   106 1   
    72    37    44 1   
    73    38    39 1   
    74    38    40 1   
    75    38   107 1   
    76    39   108 1   
    77    40    41 1   
    78    40    42 1   
    79    40   109 1   
    80    41   110 1   
    81    42    43 1   
    82    42    44 1   
    83    42   111 1   
    84    43   112 1   
    85    44    45 1   
    86    44   113 1   
    87    45    46 1   
    88    46    47 1   
    89    46    54 1   
    90    46   114 1   
    91    47    48 1   
    92    47    49 1   
    93    47   115 1   
    94    48   116 1   
    95    49    50 1   
    96    49    51 1   
    97    49   117 1   
    98    50   118 1   
    99    51    52 1   
   100    51    53 1   
   101    51   119 1   
   102    52   120 1   
   103    53    54 1   
   104    53    55 1   
   105    53   121 1   
   106    55   122 1   
   107    55   123 1   
   108    56    57 2   
   109    56   124 1   
   110    57    58 1   
   111    58   125 1   
   112    58   126 1   
   113    59    60 1   
   114    59   127 1   
   115    59   128 1   
   116    60    61 1   
   117    60    62 1   
   118    60   129 1   
   119    61    68 1   
   120    62    63 1   
   121    62    64 1   
   122    62   130 1   
   123    63   131 1   
   124    64    65 1   
   125    64    66 1   
   126    64   132 1   
   127    65   133 1   
   128    66    67 1   
   129    66    68 1   
   130    66   134 1   
   131    67   135 1   
   132    68   136 1   
   133    69    70 1   
   134    69    77 1   
   135    69   137 1   
   136    70    71 1   
   137    70    72 1   
   138    70   138 1   
   139    71   139 1   
   140    72    73 1   
   141    72    74 1   
   142    72   140 1   
   143    73   141 1   
   144    74    75 1   
   145    74    76 1   
   146    74   142 1   
   147    75   143 1   
   148    76    77 1   
   149    76    78 1   
   150    76   144 1   
   151    78    79 1   
   152    78   145 1   
   153    78   146 1   
   154    79   147 1   
@<TRIPOS>SUBSTRUCTURE
     1 WA3         1 TEMP              0 ****  ****    0 ROOT
