@<TRIPOS>MOLECULE
WA4
   26    27     1     0     0
SMALL
No Charge or Current Charge


@<TRIPOS>ATOM
      1 C11          8.4150     7.9640    18.5960 ca         1 WA4      -0.123000
      2 C17          8.2880     7.1170    17.4880 ca         1 WA4       0.334900
      3 C18          1.4150     4.6860    19.8690 c3         1 WA4       0.408000
      4 C1           4.9950     7.5540    20.0320 ca         1 WA4      -0.188000
      5 C2           6.1250     7.4240    19.1880 ca         1 WA4       0.016000
      6 C3           3.8120     6.8550    19.7410 ca         1 WA4       0.064000
      7 S4           5.0140     8.6110    21.4880 ss         1 WA4      -0.161000
      8 C5           6.0730     6.5790    18.0410 ca         1 WA4       0.214000
      9 C6           7.3230     8.1230    19.4610 ca         1 WA4      -0.080000
     10 C7           3.7380     6.0030    18.6250 ca         1 WA4      -0.297000
     11 C8           4.8860     7.4280    22.9050 c3         1 WA4       0.405000
     12 C9           4.8600     5.8780    17.7820 ca         1 WA4       0.291100
     13 N10          7.1510     6.4400    17.2120 nb         1 WA4      -0.617000
     14 S12          2.2260     5.0850    18.2460 ss         1 WA4      -0.171000
     15 F13          4.9900     8.0680    24.0910 f          1 WA4      -0.097000
     16 F14          3.7050     6.7690    22.9120 f          1 WA4      -0.097000
     17 F15          5.8650     6.4970    22.8660 f          1 WA4      -0.097000
     18 O16          4.7430     5.0500    16.6990 oh         1 WA4      -0.471100
     19 F19          0.4710     3.7310    19.7190 f          1 WA4      -0.093000
     20 F20          2.3050     4.2260    20.7770 f          1 WA4      -0.093000
     21 F21          0.8010     5.7620    20.4100 f          1 WA4      -0.093000
     22 H24          9.3500     8.4870    18.7760 ha         1 WA4       0.133000
     23 H26          9.1200     6.9740    16.7990 h4         1 WA4       0.030100
     24 H22          2.9500     6.9960    20.3860 ha         1 WA4       0.149000
     25 H23          7.4220     8.7810    20.3200 ha         1 WA4       0.142000
     26 H25          3.8320     4.6970    16.7250 ho         1 WA4       0.490000
@<TRIPOS>BOND
     1     1     2 ar  
     2     1     9 ar  
     3     1    22 1   
     4     2    13 ar  
     5     2    23 1   
     6     3    14 1   
     7     3    19 1   
     8     3    20 1   
     9     3    21 1   
    10     4     5 ar  
    11     4     6 ar  
    12     4     7 1   
    13     5     8 ar  
    14     5     9 ar  
    15     6    10 ar  
    16     6    24 1   
    17     7    11 1   
    18     8    12 ar  
    19     8    13 ar  
    20     9    25 1   
    21    10    12 ar  
    22    10    14 1   
    23    11    15 1   
    24    11    16 1   
    25    11    17 1   
    26    12    18 1   
    27    18    26 1   
@<TRIPOS>SUBSTRUCTURE
     1 WA4         1 TEMP              0 ****  ****    0 ROOT
