@<TRIPOS>MOLECULE
WA4
   26    27     1     0     0
SMALL
abcg2


@<TRIPOS>ATOM
      1 C11          7.7920     8.3380    18.5120 ca         1 WA4      -0.123000
      2 C17          7.6000     7.4780    17.4130 ca         1 WA4       0.334900
      3 C18          1.1450     5.2740    18.6040 c3         1 WA4       0.408000
      4 C1           4.9260     7.1620    20.6060 ca         1 WA4      -0.188000
      5 C2           5.8710     7.3270    19.5470 ca         1 WA4       0.016000
      6 C3           3.9190     6.2390    20.4880 ca         1 WA4       0.064000
      7 S4           4.9830     8.1750    22.0640 ss         1 WA4      -0.161000
      8 C5           5.7630     6.5120    18.3860 ca         1 WA4       0.214000
      9 C6           6.9310     8.2600    19.5730 ca         1 WA4      -0.080000
     10 C7           3.7920     5.4410    19.3350 ca         1 WA4      -0.297000
     11 C8           6.1090     7.1820    23.0880 c3         1 WA4       0.405000
     12 C9           4.7000     5.5560    18.2910 ca         1 WA4       0.291100
     13 N10          6.6260     6.5980    17.3450 nb         1 WA4      -0.617000
     14 S12          2.5020     4.2270    19.2330 ss         1 WA4      -0.171000
     15 F13          6.3050     7.8420    24.2430 f          1 WA4      -0.097000
     16 F14          5.6220     5.9640    23.3880 f          1 WA4      -0.097000
     17 F15          7.3130     6.9800    22.5210 f          1 WA4      -0.097000
     18 O16          4.6400     4.8220    17.1770 oh         1 WA4      -0.471100
     19 F19          0.0980     4.4800    18.3350 f          1 WA4      -0.093000
     20 F20          0.7430     6.1960    19.4960 f          1 WA4      -0.093000
     21 F21          1.4680     5.9360    17.4800 f          1 WA4      -0.093000
     22 H24          8.6110     9.0440    18.5070 ha         1 WA4       0.133000
     23 H26          8.2760     7.5260    16.5660 h4         1 WA4       0.030100
     24 H22          3.2030     6.1150    21.2880 ha         1 WA4       0.149000
     25 H23          7.0510     8.9060    20.4320 ha         1 WA4       0.142000
     26 H25          3.8850     4.2080    17.2360 ho         1 WA4       0.490000
@<TRIPOS>BOND
     1     1     2 ar  
     2     1     9 ar  
     3     1    22 1   
     4     2    13 ar  
     5     2    23 1   
     6     3    14 1   
     7     3    19 1   
     8     3    20 1   
     9     3    21 1   
    10     4     5 ar  
    11     4     6 ar  
    12     4     7 1   
    13     5     8 ar  
    14     5     9 ar  
    15     6    10 ar  
    16     6    24 1   
    17     7    11 1   
    18     8    12 ar  
    19     8    13 ar  
    20     9    25 1   
    21    10    12 ar  
    22    10    14 1   
    23    11    15 1   
    24    11    16 1   
    25    11    17 1   
    26    12    18 1   
    27    18    26 1   
@<TRIPOS>SUBSTRUCTURE
     1 WA4         1 TEMP              0 ****  ****    0 ROOT
