@<TRIPOS>MOLECULE
WA5
   37    39     1     0     0
SMALL
bcc


@<TRIPOS>ATOM
      1 NAA          2.8860     2.5500    -1.2700 n2         1 WA5      -0.721100
      2 OAC          0.5250    -1.2630    -1.9880 o          1 WA5      -0.575500
      3 OAD          2.4820    -2.7210    -0.9870 oh         1 WA5      -0.351100
      4 CAG          5.5100     0.2340     1.4000 ca         1 WA5      -0.271300
      5 CAH          5.2530    -1.1240     1.3240 ca         1 WA5       0.452200
      6 CAI         -4.8370    -1.4740     0.8170 ca         1 WA5      -0.190000
      7 CAJ         -3.5880    -1.0040     1.1950 ca         1 WA5      -0.058000
      8 CAK          4.6660     1.0930     0.7150 ca         1 WA5      -0.037000
      9 CAL         -5.1980     0.5690    -0.4330 ca         1 WA5      -0.220000
     10 CAM         -1.7650     0.7390     1.2100 c3         1 WA5       0.165300
     11 NAN          4.2420    -1.6410     0.6350 nb         1 WA5      -0.697000
     12 NAO         -0.8150     0.6130     0.1160 ns         1 WA5      -0.567900
     13 CAP          0.4620     0.9790     0.2480 c          1 WA5       0.679100
     14 CAQ         -5.6180    -0.6710     0.0090 ca         1 WA5       0.177900
     15 CAR          2.6710     1.4010    -0.7910 ce         1 WA5       0.504900
     16 CAS         -3.9490     0.9940    -0.0260 ca         1 WA5       0.179900
     17 CAT         -3.1160     0.2400     0.7890 ca         1 WA5      -0.178300
     18 CAU          1.3250     0.7690    -1.0110 c6         1 WA5      -0.287000
     19 CAV          1.3720    -0.7150    -1.3210 c          1 WA5       0.735500
     20 CAW          3.6060     0.5770    -0.0130 ca         1 WA5      -0.324200
     21 CAX          3.4470    -0.8130    -0.0070 ca         1 WA5       0.573200
     22 NAY          2.4010    -1.3930    -0.7350 n          1 WA5      -0.338800
     23 HNAA         3.8230     2.8840    -1.0570 hn         1 WA5       0.392400
     24 HOAD         2.0730    -3.1720    -0.2340 ho         1 WA5       0.412000
     25 HAG          6.3420     0.6060     1.9800 ha         1 WA5       0.152000
     26 HAH          5.8870    -1.8330     1.8440 h4         1 WA5       0.028100
     27 HAI         -5.1920    -2.4400     1.1460 ha         1 WA5       0.159000
     28 HAJ         -2.9640    -1.6180     1.8310 ha         1 WA5       0.143000
     29 HAK          4.8280     2.1630     0.7590 ha         1 WA5       0.145000
     30 HAL         -5.8210     1.1860    -1.0680 ha         1 WA5       0.172000
     31 HAM         -1.4210     0.1590     2.0680 h1         1 WA5       0.064700
     32 HAMA        -1.8180     1.7810     1.5330 h1         1 WA5       0.064700
     33 HNAO        -1.1350     0.2230    -0.7570 hn         1 WA5       0.337500
     34 HAU          0.8340     1.2580    -1.8550 hc         1 WA5       0.125700
     35 OAB          0.9310     1.4520     1.2670 o          1 WA5      -0.585100
     36 FAE         -6.8290    -1.1040    -0.3600 f          1 WA5      -0.131900
     37 FAF         -3.5260     2.1960    -0.4380 f          1 WA5      -0.131900
@<TRIPOS>BOND
     1     1    15 2   
     2     1    23 1   
     3     2    19 2   
     4     3    22 1   
     5     3    24 1   
     6     4     5 ar  
     7     4     8 ar  
     8     4    25 1   
     9     5    11 ar  
    10     5    26 1   
    11     6     7 ar  
    12     6    14 ar  
    13     6    27 1   
    14     7    17 ar  
    15     7    28 1   
    16     8    20 ar  
    17     8    29 1   
    18     9    14 ar  
    19     9    16 ar  
    20     9    30 1   
    21    10    12 1   
    22    10    17 1   
    23    10    31 1   
    24    10    32 1   
    25    11    21 ar  
    26    12    13 1   
    27    12    33 1   
    28    13    18 1   
    29    13    35 2   
    30    14    36 1   
    31    15    18 1   
    32    15    20 1   
    33    16    17 ar  
    34    16    37 1   
    35    18    19 1   
    36    18    34 1   
    37    19    22 1   
    38    20    21 ar  
    39    21    22 1   
@<TRIPOS>SUBSTRUCTURE
     1 WA5         1 TEMP              0 ****  ****    0 ROOT
