@<TRIPOS>MOLECULE
WA5
   37    39     1     0     0
SMALL
No Charge or Current Charge


@<TRIPOS>ATOM
      1 NAA          2.1070     1.7780    -1.6510 n2         1 WA5      -0.721100
      2 OAC          1.4290    -2.5780    -1.6420 o          1 WA5      -0.500000
      3 OAD          3.8200    -3.1410    -0.3780 oh         1 WA5      -0.390100
      4 CAG          5.4100     1.3780     1.1290 ca         1 WA5      -0.188000
      5 CAH          5.7490     0.0390     1.3740 ca         1 WA5       0.386900
      6 CAI         -5.4070    -0.7390    -0.0910 ca         1 WA5      -0.172000
      7 CAJ         -4.1070    -0.9330     0.4080 ca         1 WA5      -0.040000
      8 CAK          4.2550     1.6690     0.3890 ca         1 WA5      -0.019000
      9 CAL         -5.1380     1.6690     0.1180 ca         1 WA5      -0.202000
     10 CAM         -1.9100    -0.0420     1.3040 c3         1 WA5       0.165300
     11 NAN          5.0150    -0.9980     0.9160 nb         1 WA5      -0.697000
     12 NAO         -0.9440    -0.1270     0.2130 ns         1 WA5      -0.500900
     13 CAP          0.4080    -0.2820     0.3920 c          1 WA5       0.612100
     14 CAQ         -5.9170     0.5600    -0.2330 ca         1 WA5       0.213000
     15 CAR          2.2420     0.7680    -0.8650 ce         1 WA5       0.504900
     16 CAS         -3.8410     1.4770     0.6160 ca         1 WA5       0.215000
     17 CAT         -3.3150     0.1770     0.7660 ca         1 WA5      -0.178300
     18 CAU          1.2390    -0.3440    -0.8620 c6         1 WA5      -0.287000
     19 CAV          1.9290    -1.6800    -0.9780 c          1 WA5       0.593000
     20 CAW          3.4750     0.5880    -0.0700 ca         1 WA5      -0.258900
     21 CAX          3.9030    -0.7210     0.2010 ca         1 WA5       0.507900
     22 NAY          3.1670    -1.8370    -0.3210 n          1 WA5      -0.271800
     23 HNAA         2.9750     2.3300    -1.6500 hn         1 WA5       0.392400
     24 HOAD         3.6320    -3.5590     0.4920 ho         1 WA5       0.451000
     25 HAG          6.0380     2.1760     1.5160 ha         1 WA5       0.134000
     26 HAH          6.6400    -0.2110     1.9490 h4         1 WA5       0.028100
     27 HAI         -6.0200    -1.5930    -0.3680 ha         1 WA5       0.141000
     28 HAJ         -3.7170    -1.9440     0.5150 ha         1 WA5       0.125000
     29 HAK          3.9710     2.7040     0.2030 ha         1 WA5       0.127000
     30 HAL         -5.5350     2.6730     0.0050 ha         1 WA5       0.154000
     31 HAM         -1.8750    -0.9740     1.8840 h1         1 WA5       0.064700
     32 HAMA        -1.6240     0.7790     1.9760 h1         1 WA5       0.064700
     33 HNAO        -1.2870    -0.0620    -0.7380 hn         1 WA5       0.337500
     34 HAU          0.5670    -0.2560    -1.7220 hc         1 WA5       0.125700
     35 OAB          0.9050    -0.3640     1.5030 o          1 WA5      -0.585100
     36 FAE         -7.1660     0.7430    -0.7130 f          1 WA5      -0.167000
     37 FAF         -3.0990     2.5570     0.9470 f          1 WA5      -0.167000
@<TRIPOS>BOND
     1     1    15 2   
     2     1    23 1   
     3     2    19 2   
     4     3    22 1   
     5     3    24 1   
     6     4     5 ar  
     7     4     8 ar  
     8     4    25 1   
     9     5    11 ar  
    10     5    26 1   
    11     6     7 ar  
    12     6    14 ar  
    13     6    27 1   
    14     7    17 ar  
    15     7    28 1   
    16     8    20 ar  
    17     8    29 1   
    18     9    14 ar  
    19     9    16 ar  
    20     9    30 1   
    21    10    12 1   
    22    10    17 1   
    23    10    31 1   
    24    10    32 1   
    25    11    21 ar  
    26    12    13 1   
    27    12    33 1   
    28    13    18 1   
    29    13    35 2   
    30    14    36 1   
    31    15    18 1   
    32    15    20 1   
    33    16    17 ar  
    34    16    37 1   
    35    18    19 1   
    36    18    34 1   
    37    19    22 1   
    38    20    21 ar  
    39    21    22 1   
@<TRIPOS>SUBSTRUCTURE
     1 WA5         1 TEMP              0 ****  ****    0 ROOT
