@<TRIPOS>MOLECULE
WA7
   56    57     1     0     0
SMALL
abcg2


@<TRIPOS>ATOM
      1 N1         -11.8080    22.6510   -11.8870 n7         1 WA7      -0.852400
      2 N3         -20.4260    24.0650   -11.9270 no         1 WA7       0.691100
      3 C4          -9.5600    23.5390   -12.4100 c6         1 WA7       0.194300
      4 C5         -10.8030    23.6350   -11.5240 c6         1 WA7       0.187500
      5 C6         -10.3660    23.6150   -10.0520 c6         1 WA7      -0.105400
      6 C7          -9.0080    22.5760    -8.2100 c3         1 WA7       0.128600
      7 C8         -13.1600    23.0350   -11.5340 c3         1 WA7       0.166800
      8 C10        -15.6110    22.3340   -11.6930 c3         1 WA7      -0.091400
      9 C13        -17.5240    25.7530   -13.5760 cc         1 WA7      -0.357600
     10 C15        -19.5540    26.9810   -14.0030 cd         1 WA7       0.385900
     11 C17        -19.6020    24.9660   -12.6740 cc         1 WA7      -0.350700
     12 C1          -9.4790    22.4330    -9.6620 c6         1 WA7       0.165000
     13 C11        -16.0790    23.5730   -12.4410 c3         1 WA7       0.072600
     14 C12        -18.1990    24.7710   -12.8050 cc         1 WA7       0.425900
     15 C14        -18.1690    26.8140   -14.1520 cd         1 WA7      -0.211600
     16 C16        -20.2500    26.0540   -13.2690 cd         1 WA7      -0.142600
     17 C2          -8.2900    22.3280   -10.6330 c6         1 WA7       0.106300
     18 C3          -8.7470    22.2910   -12.0880 c6         1 WA7       0.137300
     19 C9         -14.1580    21.9830   -11.9940 c3         1 WA7      -0.078400
     20 N2         -17.5030    23.7570   -12.2700 nu         1 WA7      -0.471700
     21 N5         -19.7080    28.9090   -15.1770 n1         1 WA7       0.124700
     22 N6         -19.2710    29.7640   -15.7570 n1         1 WA7      -0.050000
     23 O1          -8.1810    23.7070    -8.0800 oh         1 WA7      -0.726000
     24 O2         -10.2620    21.2530    -9.7320 oh         1 WA7      -0.725000
     25 O3          -7.5490    21.1450   -10.3960 oh         1 WA7      -0.739000
     26 O4          -7.6430    22.2790   -12.9660 oh         1 WA7      -0.732000
     27 O5          -9.9470    23.5840   -13.7590 oh         1 WA7      -0.695000
     28 O6         -19.9030    23.1140   -11.3690 o          1 WA7      -0.424500
     29 O7         -21.6190    24.2710   -11.8670 o          1 WA7      -0.424500
     30 H1         -11.5890    21.7660   -11.4480 hn         1 WA7       0.429000
     31 H3          -8.9280    24.4100   -12.1650 h1         1 WA7       0.031700
     32 H4         -11.2440    24.6190   -11.7150 h1         1 WA7       0.064700
     33 H5          -9.8230    24.5370    -9.8340 hc         1 WA7       0.064700
     34 H6         -11.2480    23.6240    -9.4050 hc         1 WA7       0.064700
     35 H7          -9.9020    22.6490    -7.5750 h1         1 WA7       0.030200
     36 H8          -8.4830    21.6580    -7.9090 h1         1 WA7       0.030200
     37 H9         -13.3720    23.9890   -12.0260 h1         1 WA7       0.024200
     38 H10        -13.3030    23.2110   -10.4550 h1         1 WA7       0.024200
     39 H11        -16.2440    21.4880   -11.9760 hc         1 WA7       0.052700
     40 H12        -15.7470    22.4820   -10.6170 hc         1 WA7       0.052700
     41 H13        -16.4570    25.6680   -13.7210 ha         1 WA7       0.195000
     42 H14        -15.5460    24.4570   -12.0800 h1         1 WA7       0.048700
     43 H15        -15.8350    23.4670   -13.5050 h1         1 WA7       0.048700
     44 H16        -17.5790    27.5200   -14.7250 ha         1 WA7       0.185000
     45 H17        -21.3170    26.1730   -13.1490 ha         1 WA7       0.232000
     46 H18         -7.6540    23.2140   -10.5060 h1         1 WA7       0.069700
     47 H19         -9.3720    21.4010   -12.2530 h1         1 WA7       0.066700
     48 H20        -13.9220    21.0320   -11.5080 hc         1 WA7       0.055200
     49 H21        -14.0350    21.8190   -13.0690 hc         1 WA7       0.055200
     50 H22        -18.0120    23.0750   -11.7340 hn         1 WA7       0.373000
     51 H27         -7.8930    23.7680    -7.1660 ho         1 WA7       0.512000
     52 H28         -9.6640    20.4980    -9.6730 ho         1 WA7       0.521000
     53 H29         -6.8910    21.3140    -9.7150 ho         1 WA7       0.515000
     54 H30         -7.1490    21.4660   -12.8190 ho         1 WA7       0.522000
     55 H31         -9.1490    23.5350   -14.2950 ho         1 WA7       0.515000
     56 N4         -20.2970    28.0380   -14.5570 ne         1 WA7      -0.392400
@<TRIPOS>BOND
     1     1     4 1   
     2     1     7 1   
     3     1    30 1   
     4     2    11 1   
     5     2    28 1   
     6     2    29 1   
     7     3     4 1   
     8     3    18 1   
     9     3    27 1   
    10     3    31 1   
    11     4     5 1   
    12     4    32 1   
    13     5    12 1   
    14     5    33 1   
    15     5    34 1   
    16     6    12 1   
    17     6    23 1   
    18     6    35 1   
    19     6    36 1   
    20     7    19 1   
    21     7    37 1   
    22     7    38 1   
    23     8    13 1   
    24     8    19 1   
    25     8    39 1   
    26     8    40 1   
    27     9    14 1   
    28     9    15 2   
    29     9    41 1   
    30    10    15 1   
    31    10    16 1   
    32    10    56 2   
    33    11    14 1   
    34    11    16 2   
    35    12    17 1   
    36    12    24 1   
    37    13    20 1   
    38    13    42 1   
    39    13    43 1   
    40    14    20 2   
    41    15    44 1   
    42    16    45 1   
    43    17    18 1   
    44    17    25 1   
    45    17    46 1   
    46    18    26 1   
    47    18    47 1   
    48    19    48 1   
    49    19    49 1   
    50    20    50 1   
    51    21    22 3   
    52    21    56 1   
    53    23    51 1   
    54    24    52 1   
    55    25    53 1   
    56    26    54 1   
    57    27    55 1   
@<TRIPOS>SUBSTRUCTURE
     1 WA7         1 TEMP              0 ****  ****    0 ROOT
