@<TRIPOS>MOLECULE
WA7
   56    57     1     0     0
SMALL
No Charge or Current Charge


@<TRIPOS>ATOM
      1 N1         -11.6370    22.8750   -11.9620 n7         1 WA7      -0.852400
      2 N3         -20.2640    24.0100   -11.5530 no         1 WA7       0.691100
      3 C4          -9.2140    23.5830   -12.4110 c6         1 WA7       0.194300
      4 C5         -10.5410    23.8120   -11.6000 c6         1 WA7       0.187500
      5 C6         -10.2330    23.7000   -10.0790 c6         1 WA7      -0.105400
      6 C7          -9.1900    22.3770    -8.1350 c3         1 WA7       0.128600
      7 C8         -13.0170    23.3160   -11.7070 c3         1 WA7       0.166800
      8 C10        -15.4890    22.5430   -11.8210 c3         1 WA7      -0.091400
      9 C13        -17.7600    25.8250   -13.8350 cc         1 WA7      -0.357600
     10 C15        -19.9480    26.8650   -14.0860 cd         1 WA7       0.385900
     11 C17        -19.7040    24.9540   -12.5110 cc         1 WA7      -0.350700
     12 C1          -9.5440    22.3530    -9.6700 c6         1 WA7       0.165000
     13 C11        -16.0300    23.7360   -12.6360 c3         1 WA7       0.072600
     14 C12        -18.3010    24.9000   -12.8790 cc         1 WA7       0.425900
     15 C14        -18.5500    26.7910   -14.4310 cd         1 WA7      -0.211600
     16 C16        -20.4910    25.9300   -13.1360 cd         1 WA7      -0.142600
     17 C2          -8.2660    22.1010   -10.5500 c6         1 WA7       0.106300
     18 C3          -8.5960    22.1970   -12.0710 c6         1 WA7       0.137300
     19 C9         -14.0070    22.2040   -12.1110 c3         1 WA7      -0.078400
     20 N2         -17.4530    23.9470   -12.3500 nu         1 WA7      -0.471700
     21 N5         -20.3320    28.8040   -15.1350 n1         1 WA7       0.124700
     22 N6         -20.0740    29.8070   -15.6040 n1         1 WA7      -0.050000
     23 O1          -8.2240    23.3850    -7.7820 oh         1 WA7      -0.726000
     24 O2         -10.4490    21.2560    -9.8840 oh         1 WA7      -0.725000
     25 O3          -7.6950    20.7980   -10.2730 oh         1 WA7      -0.739000
     26 O4          -7.4010    21.9660   -12.8440 oh         1 WA7      -0.732000
     27 O5          -9.3960    23.6790   -13.8360 oh         1 WA7      -0.695000
     28 O6         -19.5330    23.5250   -10.6820 o          1 WA7      -0.424500
     29 O7         -21.4910    23.8650   -11.5610 o          1 WA7      -0.424500
     30 H1         -11.4700    22.0300   -11.3920 hn         1 WA7       0.429000
     31 H3          -8.4960    24.3550   -12.0940 h1         1 WA7       0.031700
     32 H4         -10.8750    24.8400   -11.8140 h1         1 WA7       0.064700
     33 H5          -9.5790    24.5380    -9.8030 hc         1 WA7       0.064700
     34 H6         -11.1510    23.8440    -9.4940 hc         1 WA7       0.064700
     35 H7         -10.1200    22.5450    -7.5750 h1         1 WA7       0.030200
     36 H8          -8.8160    21.3860    -7.8420 h1         1 WA7       0.030200
     37 H9         -13.2330    24.2270   -12.2820 h1         1 WA7       0.024200
     38 H10        -13.1570    23.5470   -10.6420 h1         1 WA7       0.024200
     39 H11        -16.0960    21.6570   -12.0440 hc         1 WA7       0.052700
     40 H12        -15.6080    22.7480   -10.7500 hc         1 WA7       0.052700
     41 H13        -16.7100    25.7640   -14.1000 ha         1 WA7       0.195000
     42 H14        -15.4660    24.6430   -12.3810 h1         1 WA7       0.048700
     43 H15        -15.8930    23.5350   -13.7070 h1         1 WA7       0.048700
     44 H16        -18.1190    27.4750   -15.1570 ha         1 WA7       0.185000
     45 H17        -21.5500    26.0140   -12.9060 ha         1 WA7       0.232000
     46 H18         -7.5320    22.8900   -10.3200 h1         1 WA7       0.069700
     47 H19         -9.3390    21.4210   -12.3110 h1         1 WA7       0.066700
     48 H20        -13.7500    21.2860   -11.5690 hc         1 WA7       0.055200
     49 H21        -13.8900    21.9840   -13.1800 hc         1 WA7       0.055200
     50 H22        -17.8710    23.3900   -11.6080 hn         1 WA7       0.373000
     51 H27         -8.1280    23.3660    -6.8000 ho         1 WA7       0.512000
     52 H28         -9.8530    20.4710    -9.9670 ho         1 WA7       0.521000
     53 H29         -7.1340    20.8930    -9.4660 ho         1 WA7       0.515000
     54 H30         -6.9360    21.2420   -12.3550 ho         1 WA7       0.522000
     55 H31         -8.6670    23.1170   -14.1930 ho         1 WA7       0.515000
     56 N4         -20.7640    27.7470   -14.6180 ne         1 WA7      -0.392400
@<TRIPOS>BOND
     1     1     4 1   
     2     1     7 1   
     3     1    30 1   
     4     2    11 1   
     5     2    28 1   
     6     2    29 1   
     7     3     4 1   
     8     3    18 1   
     9     3    27 1   
    10     3    31 1   
    11     4     5 1   
    12     4    32 1   
    13     5    12 1   
    14     5    33 1   
    15     5    34 1   
    16     6    12 1   
    17     6    23 1   
    18     6    35 1   
    19     6    36 1   
    20     7    19 1   
    21     7    37 1   
    22     7    38 1   
    23     8    13 1   
    24     8    19 1   
    25     8    39 1   
    26     8    40 1   
    27     9    14 1   
    28     9    15 2   
    29     9    41 1   
    30    10    15 1   
    31    10    16 1   
    32    10    56 2   
    33    11    14 1   
    34    11    16 2   
    35    12    17 1   
    36    12    24 1   
    37    13    20 1   
    38    13    42 1   
    39    13    43 1   
    40    14    20 2   
    41    15    44 1   
    42    16    45 1   
    43    17    18 1   
    44    17    25 1   
    45    17    46 1   
    46    18    26 1   
    47    18    47 1   
    48    19    48 1   
    49    19    49 1   
    50    20    50 1   
    51    21    22 3   
    52    21    56 1   
    53    23    51 1   
    54    24    52 1   
    55    25    53 1   
    56    26    54 1   
    57    27    55 1   
@<TRIPOS>SUBSTRUCTURE
     1 WA7         1 TEMP              0 ****  ****    0 ROOT
