@<TRIPOS>MOLECULE
WA8
   33    33     1     0     0
SMALL
No Charge or Current Charge


@<TRIPOS>ATOM
      1 N1          33.9820    13.4730    44.8540 n          1 WA8      -0.258000
      2 C7          35.0770    13.6360    43.8560 c3         1 WA8       0.005000
      3 C8          32.6770    13.8540    44.5330 cc         1 WA8      -0.020400
      4 C9          31.6310    13.7160    45.4240 cd         1 WA8      -0.297000
      5 O1          35.4330    12.5690    46.4230 o          1 WA8      -0.570000
      6 C1          38.0560    14.1860    42.8110 c2         1 WA8      -0.253200
      7 C5          39.0840    10.4350    41.5230 c2         1 WA8      -0.292000
      8 C6          35.4080    12.3670    43.0300 c          1 WA8       0.589100
      9 C4          37.7690    10.3820    41.7910 c2         1 WA8      -0.253200
     10 C3          36.7110    11.2730    41.1770 c3         1 WA8       0.134200
     11 C2          37.1170    13.7130    41.7160 c3         1 WA8       0.134200
     12 C12         34.3000    12.9140    46.1120 c          1 WA8       0.557200
     13 C11         33.1640    12.7820    47.0330 cc         1 WA8      -0.314200
     14 C10         31.8740    13.1600    46.7250 cd         1 WA8      -0.081000
     15 O           34.8120    11.3120    43.2280 o          1 WA8      -0.590100
     16 N           36.4070    12.4470    42.0270 n          1 WA8      -0.411800
     17 C           38.7320    13.4100    43.6760 c2         1 WA8      -0.292000
     18 H1          35.9900    13.9490    44.3740 h1         1 WA8       0.084200
     19 H2          34.8130    14.4340    43.1520 h1         1 WA8       0.084200
     20 H3          32.5860    14.2580    43.5280 h4         1 WA8       0.196000
     21 H4          30.6270    14.0250    45.1380 ha         1 WA8       0.199000
     22 H5          38.1630    15.2730    42.8540 ha         1 WA8       0.177500
     23 H6          39.4980    11.1570    40.8170 ha         1 WA8       0.168500
     24 H7          39.7940     9.7600    42.0040 ha         1 WA8       0.168500
     25 H8          37.3750     9.6540    42.5030 ha         1 WA8       0.177500
     26 H9          37.0460    11.6130    40.1870 h1         1 WA8       0.057450
     27 H10         35.7940    10.6930    41.0080 h1         1 WA8       0.057450
     28 H11         37.7000    13.5850    40.7940 h1         1 WA8       0.057450
     29 H12         36.3730    14.4930    41.5040 h1         1 WA8       0.057450
     30 H13         33.4100    12.3550    47.9990 ha         1 WA8       0.208000
     31 H14         31.0660    13.0400    47.4460 ha         1 WA8       0.185000
     32 H15         39.3910    13.8390    44.4330 ha         1 WA8       0.168500
     33 H16         38.6530    12.3230    43.6620 ha         1 WA8       0.168500
@<TRIPOS>BOND
     1     1     2 1   
     2     1     3 1   
     3     1    12 1   
     4     2     8 1   
     5     2    18 1   
     6     2    19 1   
     7     3     4 2   
     8     3    20 1   
     9     4    14 1   
    10     4    21 1   
    11     5    12 2   
    12     6    11 1   
    13     6    17 2   
    14     6    22 1   
    15     7     9 2   
    16     7    23 1   
    17     7    24 1   
    18     8    15 2   
    19     8    16 1   
    20     9    10 1   
    21     9    25 1   
    22    10    16 1   
    23    10    26 1   
    24    10    27 1   
    25    11    16 1   
    26    11    28 1   
    27    11    29 1   
    28    12    13 1   
    29    13    14 2   
    30    13    30 1   
    31    14    31 1   
    32    17    32 1   
    33    17    33 1   
@<TRIPOS>SUBSTRUCTURE
     1 WA8         1 TEMP              0 ****  ****    0 ROOT
