@<TRIPOS>MOLECULE
WA8
   33    33     1     0     0
SMALL
abcg2


@<TRIPOS>ATOM
      1 N1          33.9430    13.5490    44.7690 n          1 WA8      -0.258000
      2 C7          34.9960    13.7480    43.7900 c3         1 WA8       0.005000
      3 C8          32.6460    13.7490    44.4090 cc         1 WA8      -0.020400
      4 C9          31.6210    13.5290    45.2750 cd         1 WA8      -0.297000
      5 O1          35.5120    12.8650    46.2870 o          1 WA8      -0.570000
      6 C1          38.2740    13.9530    42.9730 c2         1 WA8      -0.253200
      7 C5          39.0100    10.4630    40.9590 c2         1 WA8      -0.292000
      8 C6          35.3450    12.4350    43.0800 c          1 WA8       0.589100
      9 C4          37.9980    10.6580    41.7950 c2         1 WA8      -0.253200
     10 C3          36.7040    11.3050    41.4030 c3         1 WA8       0.134200
     11 C2          37.1760    13.6880    41.9810 c3         1 WA8       0.134200
     12 C12         34.3170    13.0700    46.0330 c          1 WA8       0.557200
     13 C11         33.2280    12.8600    46.9440 cc         1 WA8      -0.314200
     14 C10         31.9330    13.0750    46.5770 cd         1 WA8      -0.081000
     15 O           34.6850    11.4200    43.2880 o          1 WA8      -0.590100
     16 N           36.3770    12.4880    42.2090 n          1 WA8      -0.411800
     17 C           38.5610    13.2360    44.0500 c2         1 WA8      -0.292000
     18 H1          35.8720    14.1490    44.2920 h1         1 WA8       0.084200
     19 H2          34.6510    14.4760    43.0570 h1         1 WA8       0.084200
     20 H3          32.4920    14.0960    43.3970 h4         1 WA8       0.196000
     21 H4          30.6030    13.7040    44.9620 ha         1 WA8       0.199000
     22 H5          38.8600    14.8390    42.7440 ha         1 WA8       0.177500
     23 H6          38.9590    10.7930    39.9270 ha         1 WA8       0.168500
     24 H7          39.9200     9.9670    41.2740 ha         1 WA8       0.168500
     25 H8          38.0690    10.3290    42.8280 ha         1 WA8       0.177500
     26 H9          36.7380    11.6060    40.3530 h1         1 WA8       0.057450
     27 H10         35.8820    10.6030    41.5320 h1         1 WA8       0.057450
     28 H11         37.6180    13.5930    40.9860 h1         1 WA8       0.057450
     29 H12         36.5270    14.5650    41.9220 h1         1 WA8       0.057450
     30 H13         33.4880    12.5070    47.9330 ha         1 WA8       0.208000
     31 H14         31.1340    12.8950    47.2870 ha         1 WA8       0.185000
     32 H15         39.3750    13.5170    44.7060 ha         1 WA8       0.168500
     33 H16         37.9990    12.3500    44.3170 ha         1 WA8       0.168500
@<TRIPOS>BOND
     1     1     2 1   
     2     1     3 1   
     3     1    12 1   
     4     2     8 1   
     5     2    18 1   
     6     2    19 1   
     7     3     4 2   
     8     3    20 1   
     9     4    14 1   
    10     4    21 1   
    11     5    12 2   
    12     6    11 1   
    13     6    17 2   
    14     6    22 1   
    15     7     9 2   
    16     7    23 1   
    17     7    24 1   
    18     8    15 2   
    19     8    16 1   
    20     9    10 1   
    21     9    25 1   
    22    10    16 1   
    23    10    26 1   
    24    10    27 1   
    25    11    16 1   
    26    11    28 1   
    27    11    29 1   
    28    12    13 1   
    29    13    14 2   
    30    13    30 1   
    31    14    31 1   
    32    17    32 1   
    33    17    33 1   
@<TRIPOS>SUBSTRUCTURE
     1 WA8         1 TEMP              0 ****  ****    0 ROOT
