@<TRIPOS>MOLECULE
WA9
   49    51     1     0     0
SMALL
abcg2


@<TRIPOS>ATOM
      1 C11          3.7530     6.6560    17.9480 c3         1 WA9       0.182900
      2 C13          6.2500     7.4610    21.4870 c3         1 WA9       0.211900
      3 C15          1.5000     5.8360    18.8130 ca         1 WA9       0.121000
      4 C16          0.1120     5.8870    18.8360 ca         1 WA9      -0.119000
      5 C17         -0.5520     6.8140    18.0520 ca         1 WA9      -0.117000
      6 C18          0.1740     7.6800    17.2450 ca         1 WA9      -0.118000
      7 C19          1.5560     7.6140    17.2330 ca         1 WA9      -0.070000
      8 C20          3.8700     6.9530    22.2030 ca         1 WA9      -0.067000
      9 C21          2.9490     6.5450    23.1570 ca         1 WA9      -0.110000
     10 C22          3.3680     6.2220    24.4390 ca         1 WA9      -0.112000
     11 C23          4.7130     6.3090    24.7650 ca         1 WA9      -0.113000
     12 C24          5.6190     6.7140    23.7990 ca         1 WA9       0.116000
     13 C1           7.6290     8.5270    16.7810 ca         1 WA9      -0.099000
     14 C2           6.2380     8.3800    16.7800 ca         1 WA9       0.007700
     15 C3           5.5940     8.1050    17.9790 ca         1 WA9       0.069100
     16 C4           6.3290     7.9650    19.1690 ca         1 WA9       0.105100
     17 C5           7.7080     8.1110    19.1540 ca         1 WA9      -0.212000
     18 C6           8.3480     8.3900    17.9510 ca         1 WA9      -0.098000
     19 C7           5.4870     8.5390    15.4820 c3         1 WA9       0.052600
     20 C8           5.8280     7.3210    14.5740 c          1 WA9       0.704000
     21 O9           4.2370     7.9940    18.0500 os         1 WA9      -0.359100
     22 O10          5.5950     7.7020    20.2690 os         1 WA9      -0.342100
     23 C12          2.2540     6.6960    18.0190 ca         1 WA9      -0.043300
     24 C14          5.2250     7.0420    22.5040 ca         1 WA9      -0.068300
     25 O27          6.7100     7.4750    13.7140 o          1 WA9      -0.715000
     26 O28          5.1900     6.2820    14.8320 o          1 WA9      -0.715000
     27 O29          5.8570     9.7850    14.9430 os         1 WA9      -0.452000
     28 C30          5.0610    10.1720    13.8530 c3         1 WA9       0.166900
     29 H36          4.0690     6.2280    16.9900 h1         1 WA9       0.077700
     30 H35          4.1700     6.0370    18.7440 h1         1 WA9       0.077700
     31 H38          7.0030     6.6710    21.3740 h1         1 WA9       0.046700
     32 H37          6.7780     8.3600    21.8290 h1         1 WA9       0.046700
     33 H39         -0.4440     5.2040    19.4650 ha         1 WA9       0.114000
     34 H40         -1.6330     6.8550    18.0710 ha         1 WA9       0.103000
     35 H41         -0.3370     8.4030    16.6230 ha         1 WA9       0.110000
     36 H42          2.1120     8.2890    16.5940 ha         1 WA9       0.141000
     37 H44          1.9020     6.4780    22.8930 ha         1 WA9       0.118000
     38 H45          2.6550     5.9030    25.1870 ha         1 WA9       0.109000
     39 H46          5.0560     6.0610    25.7600 ha         1 WA9       0.119000
     40 H31          8.1430     8.7380    15.8530 ha         1 WA9       0.147000
     41 H32          8.2950     8.0130    20.0580 ha         1 WA9       0.100000
     42 H33          9.4250     8.5020    17.9410 ha         1 WA9       0.098000
     43 H34          4.4060     8.5240    15.6750 h1         1 WA9       0.034700
     44 H50          5.3840    11.1660    13.5410 h1         1 WA9       0.014367
     45 H49          5.1570     9.4980    12.9970 h1         1 WA9       0.014367
     46 H48          3.9980    10.2280    14.1230 h1         1 WA9       0.014367
     47 CL26         7.3000     6.8090    24.2270 cl         1 WA9      -0.224000
     48 CL25         2.2690     4.6380    19.8110 cl         1 WA9      -0.222000
     49 H43          3.5240     7.2040    21.2110 ha         1 WA9       0.154000
@<TRIPOS>BOND
     1     1    21 1   
     2     1    23 1   
     3     1    29 1   
     4     1    30 1   
     5     2    22 1   
     6     2    24 1   
     7     2    31 1   
     8     2    32 1   
     9     3     4 ar  
    10     3    23 ar  
    11     3    48 1   
    12     4     5 ar  
    13     4    33 1   
    14     5     6 ar  
    15     5    34 1   
    16     6     7 ar  
    17     6    35 1   
    18     7    23 ar  
    19     7    36 1   
    20     8     9 ar  
    21     8    24 ar  
    22     8    49 1   
    23     9    10 ar  
    24     9    37 1   
    25    10    11 ar  
    26    10    38 1   
    27    11    12 ar  
    28    11    39 1   
    29    12    24 ar  
    30    12    47 1   
    31    13    14 ar  
    32    13    18 ar  
    33    13    40 1   
    34    14    15 ar  
    35    14    19 1   
    36    15    16 ar  
    37    15    21 1   
    38    16    17 ar  
    39    16    22 1   
    40    17    18 ar  
    41    17    41 1   
    42    18    42 1   
    43    19    20 1   
    44    19    27 1   
    45    19    43 1   
    46    20    25 1   
    47    20    26 1   
    48    27    28 1   
    49    28    44 1   
    50    28    45 1   
    51    28    46 1   
@<TRIPOS>SUBSTRUCTURE
     1 WA9         1 TEMP              0 ****  ****    0 ROOT
