@<TRIPOS>MOLECULE
WA9
   49    51     1     0     0
SMALL
No Charge or Current Charge


@<TRIPOS>ATOM
      1 C11          3.8190     6.5160    18.2900 c3         1 WA9       0.182900
      2 C13          6.3350     7.5740    21.6080 c3         1 WA9       0.211900
      3 C15          1.3980     6.6710    19.1280 ca         1 WA9       0.121000
      4 C16          0.0140     6.5680    18.8970 ca         1 WA9      -0.119000
      5 C17         -0.4680     6.2120    17.6270 ca         1 WA9      -0.117000
      6 C18          0.4360     5.9600    16.5820 ca         1 WA9      -0.118000
      7 C19          1.8200     6.0620    16.8080 ca         1 WA9      -0.070000
      8 C20          4.8010     8.0350    23.5750 ca         1 WA9      -0.067000
      9 C21          3.8420     7.6330    24.5220 ca         1 WA9      -0.110000
     10 C22          3.3780     6.3080    24.5340 ca         1 WA9      -0.112000
     11 C23          3.8720     5.3850    23.5980 ca         1 WA9      -0.113000
     12 C24          4.8310     5.7820    22.6500 ca         1 WA9       0.116000
     13 C1           7.5880     8.9120    16.8070 ca         1 WA9      -0.099000
     14 C2           6.2150     8.5930    16.7820 ca         1 WA9       0.007700
     15 C3           5.5800     8.1840    17.9800 ca         1 WA9       0.069100
     16 C4           6.3140     8.1290    19.1940 ca         1 WA9       0.105100
     17 C5           7.6870     8.4580    19.1940 ca         1 WA9      -0.212000
     18 C6           8.3190     8.8440    18.0020 ca         1 WA9      -0.098000
     19 C7           5.4500     8.6580    15.4540 c3         1 WA9       0.052600
     20 C8           5.8070     7.4020    14.5790 c          1 WA9       0.704000
     21 O9           4.2390     7.8500    17.9490 os         1 WA9      -0.359100
     22 O10          5.6570     7.7770    20.3580 os         1 WA9      -0.342100
     23 C12          2.3130     6.4140    18.0810 ca         1 WA9      -0.043300
     24 C14          5.3060     7.1140    22.6340 ca         1 WA9      -0.068300
     25 O27          6.5620     7.5250    13.6210 o          1 WA9      -0.715000
     26 O28          5.3170     6.3250    14.8960 o          1 WA9      -0.715000
     27 O29          5.7450     9.9370    14.8200 os         1 WA9      -0.452000
     28 C30          4.8660    10.3000    13.7390 c3         1 WA9       0.166900
     29 H36          4.3230     5.7830    17.6460 h1         1 WA9       0.077700
     30 H35          4.0720     6.2580    19.3240 h1         1 WA9       0.077700
     31 H38          7.1220     6.8150    21.5070 h1         1 WA9       0.046700
     32 H37          6.8060     8.5060    21.9470 h1         1 WA9       0.046700
     33 H39         -0.6850     6.7660    19.7060 ha         1 WA9       0.114000
     34 H40         -1.5390     6.1340    17.4520 ha         1 WA9       0.103000
     35 H41          0.0650     5.6870    15.5960 ha         1 WA9       0.110000
     36 H42          2.5120     5.8690    15.9910 ha         1 WA9       0.141000
     37 H44          3.4580     8.3500    25.2440 ha         1 WA9       0.118000
     38 H45          2.6340     5.9970    25.2660 ha         1 WA9       0.109000
     39 H46          3.5100     4.3600    23.6040 ha         1 WA9       0.119000
     40 H31          8.0900     9.2150    15.8900 ha         1 WA9       0.147000
     41 H32          8.2770     8.4280    20.1060 ha         1 WA9       0.100000
     42 H33          9.3770     9.0960    18.0050 ha         1 WA9       0.098000
     43 H34          4.3730     8.6020    15.6550 h1         1 WA9       0.034700
     44 H50          5.1550    11.2750    13.3260 h1         1 WA9       0.014367
     45 H49          4.9060     9.5610    12.9290 h1         1 WA9       0.014367
     46 H48          3.8290    10.3730    14.0910 h1         1 WA9       0.014367
     47 Cl26         5.4120     4.5860    21.4900 cl         1 WA9      -0.224000
     48 Cl25         1.9450     7.1300    20.7420 cl         1 WA9      -0.222000
     49 H43          5.1490     9.0660    23.5720 ha         1 WA9       0.154000
@<TRIPOS>BOND
     1     1    21 1   
     2     1    23 1   
     3     1    29 1   
     4     1    30 1   
     5     2    22 1   
     6     2    24 1   
     7     2    31 1   
     8     2    32 1   
     9     3     4 ar  
    10     3    23 ar  
    11     3    48 1   
    12     4     5 ar  
    13     4    33 1   
    14     5     6 ar  
    15     5    34 1   
    16     6     7 ar  
    17     6    35 1   
    18     7    23 ar  
    19     7    36 1   
    20     8     9 ar  
    21     8    24 ar  
    22     8    49 1   
    23     9    10 ar  
    24     9    37 1   
    25    10    11 ar  
    26    10    38 1   
    27    11    12 ar  
    28    11    39 1   
    29    12    24 ar  
    30    12    47 1   
    31    13    14 ar  
    32    13    18 ar  
    33    13    40 1   
    34    14    15 ar  
    35    14    19 1   
    36    15    16 ar  
    37    15    21 1   
    38    16    17 ar  
    39    16    22 1   
    40    17    18 ar  
    41    17    41 1   
    42    18    42 1   
    43    19    20 1   
    44    19    27 1   
    45    19    43 1   
    46    20    25 1   
    47    20    26 1   
    48    27    28 1   
    49    28    44 1   
    50    28    45 1   
    51    28    46 1   
@<TRIPOS>SUBSTRUCTURE
     1 WA9         1 TEMP              0 ****  ****    0 ROOT
