@<TRIPOS>MOLECULE
WAA
   75    79     1     0     0
SMALL
bcc


@<TRIPOS>ATOM
      1 O1           0.8170     2.1090     0.8640 o          1 WAA      -0.622100
      2 C1           1.2000     1.2440     0.0830 c          1 WAA       0.666100
      3 C2           0.2390     0.4400    -0.8150 c6         1 WAA      -0.114000
      4 C3           0.7570    -0.9940    -1.0090 c3         1 WAA      -0.085100
      5 C4           0.2470     1.2020    -2.1590 c6         1 WAA      -0.072400
      6 C5          -0.8520     0.7430    -3.1000 c6         1 WAA      -0.071400
      7 C6          -2.2160     0.9210    -2.4530 c6         1 WAA      -0.067400
      8 C7          -2.3760     0.1450    -1.1390 c6         1 WAA      -0.025000
      9 C8          -2.5570    -1.3460    -1.4430 c3         1 WAA      -0.076100
     10 C9          -1.1810     0.4850    -0.1990 c6         1 WAA      -0.037700
     11 C10         -1.2680    -0.2960     1.1100 c6         1 WAA      -0.042200
     12 C11         -2.6500    -0.3230     1.6710 c2         1 WAA      -0.137200
     13 C12         -3.7380     0.0720     1.0030 ce         1 WAA      -0.098200
     14 C13         -5.0690    -0.0640     1.5950 ce         1 WAA      -0.113000
     15 C14         -3.6370     0.6610    -0.3920 c6         1 WAA      -0.013500
     16 C15         -4.9640     0.5450    -1.1750 c6         1 WAA      -0.064400
     17 C16         -5.9530    -0.4820    -0.6300 c6         1 WAA      -0.033200
     18 C17         -6.1480    -0.3220     0.8500 c2         1 WAA      -0.128400
     19 C18         -7.5190    -0.5010     1.4440 c3         1 WAA      -0.015500
     20 C19         -8.4700     0.6030     0.9780 c3         1 WAA      -0.082100
     21 C20         -8.0900    -1.8830     1.1240 c3         1 WAA      -0.082100
     22 N            2.5040     0.9750    -0.0690 ns         1 WAA      -0.525900
     23 CA           3.5290     1.8140     0.5030 c3         1 WAA      -0.028300
     24 C            3.5420     3.2460    -0.0890 c          1 WAA       0.929600
     25 O            2.9590     3.4320    -1.1700 o          1 WAA      -0.828800
     26 CB           4.9050     1.1650     0.2950 c3         1 WAA      -0.018200
     27 CG           4.9940    -0.2360     0.8040 cc         1 WAA      -0.101400
     28 CD1          5.2320    -0.6290     2.0920 cd         1 WAA      -0.124100
     29 CD2          4.7880    -1.4420     0.0570 ca         1 WAA      -0.094800
     30 NE1          5.1800    -1.9920     2.1890 na         1 WAA      -0.183400
     31 CE2          4.9110    -2.5220     0.9620 ca         1 WAA      -0.052200
     32 CE3          4.5220    -1.7170    -1.2900 ca         1 WAA      -0.073000
     33 CZ2          4.7680    -3.8490     0.5600 ca         1 WAA      -0.158000
     34 CZ3          4.3750    -3.0300    -1.6920 ca         1 WAA      -0.177000
     35 CH2          4.4950    -4.0860    -0.7740 ca         1 WAA      -0.121000
     36 OXT          4.1890     4.0790     0.5780 o          1 WAA      -0.828800
     37 H1           1.0730    -1.4550    -0.0730 hc         1 WAA       0.031033
     38 H2           0.0010    -1.6400    -1.4430 hc         1 WAA       0.031033
     39 H3           1.6120    -1.0360    -1.6880 hc         1 WAA       0.031033
     40 H4           0.1110     2.2710    -1.9630 hc         1 WAA       0.067700
     41 H5           1.2280     1.1020    -2.6290 hc         1 WAA       0.067700
     42 H6          -0.8080     1.3340    -4.0180 hc         1 WAA       0.029700
     43 H7          -0.6910    -0.2950    -3.4080 hc         1 WAA       0.029700
     44 H8          -2.3640     1.9900    -2.2550 hc         1 WAA       0.032700
     45 H9          -2.9970     0.6340    -3.1620 hc         1 WAA       0.032700
     46 H10         -2.5180    -1.9640    -0.5450 hc         1 WAA       0.027367
     47 H11         -3.5290    -1.5190    -1.9090 hc         1 WAA       0.027367
     48 H12         -1.8150    -1.7320    -2.1400 hc         1 WAA       0.027367
     49 H13         -1.3390     1.5380     0.0610 hc         1 WAA       0.078700
     50 H14         -0.9220    -1.3290     0.9810 hc         1 WAA       0.057700
     51 H15         -0.5860     0.1420     1.8440 hc         1 WAA       0.057700
     52 H16         -2.7660    -0.7330     2.6720 ha         1 WAA       0.110000
     53 H17         -5.1520    -0.0160     2.6780 ha         1 WAA       0.118000
     54 H18         -3.4690     1.7360    -0.2490 hc         1 WAA       0.058700
     55 H19         -5.4620     1.5170    -1.1630 hc         1 WAA       0.035700
     56 H20         -4.7760     0.3280    -2.2270 hc         1 WAA       0.035700
     57 H21         -6.8970    -0.3870    -1.1720 hc         1 WAA       0.038700
     58 H22         -5.5940    -1.4970    -0.8360 hc         1 WAA       0.038700
     59 H23         -7.4210    -0.4200     2.5320 hc         1 WAA       0.044700
     60 H24         -9.4550     0.4800     1.4320 hc         1 WAA       0.030033
     61 H25         -8.0960     1.5900     1.2540 hc         1 WAA       0.030033
     62 H26         -8.6070     0.5870    -0.1050 hc         1 WAA       0.030033
     63 H27         -8.2250    -2.0230     0.0500 hc         1 WAA       0.030033
     64 H28         -7.4340    -2.6760     1.4850 hc         1 WAA       0.030033
     65 H29         -9.0650    -2.0180     1.5950 hc         1 WAA       0.030033
     66 H30          2.7750     0.3170    -0.7790 hn         1 WAA       0.294500
     67 H31          3.3570     1.8860     1.5810 h1         1 WAA       0.055700
     68 H32          5.1560     1.1880    -0.7720 hc         1 WAA       0.057200
     69 H33          5.6420     1.7960     0.7920 hc         1 WAA       0.057200
     70 H34          5.4380    -0.0270     2.9630 h4         1 WAA       0.164000
     71 H35          5.3480    -2.5160     3.0310 hn         1 WAA       0.286700
     72 H36          4.4420    -0.9170    -2.0170 ha         1 WAA       0.139000
     73 H37          4.8650    -4.6640     1.2660 ha         1 WAA       0.118000
     74 H38          4.1660    -3.2520    -2.7310 ha         1 WAA       0.119000
     75 H39          4.3750    -5.1060    -1.1180 ha         1 WAA       0.114000
@<TRIPOS>BOND
     1     1     2 2   
     2     2     3 1   
     3     2    22 1   
     4     3     4 1   
     5     3     5 1   
     6     3    10 1   
     7     4    37 1   
     8     4    38 1   
     9     4    39 1   
    10     5     6 1   
    11     5    40 1   
    12     5    41 1   
    13     6     7 1   
    14     6    42 1   
    15     6    43 1   
    16     7     8 1   
    17     7    44 1   
    18     7    45 1   
    19     8     9 1   
    20     8    10 1   
    21     8    15 1   
    22     9    46 1   
    23     9    47 1   
    24     9    48 1   
    25    10    11 1   
    26    10    49 1   
    27    11    12 1   
    28    11    50 1   
    29    11    51 1   
    30    12    13 2   
    31    12    52 1   
    32    13    14 1   
    33    13    15 1   
    34    14    18 2   
    35    14    53 1   
    36    15    16 1   
    37    15    54 1   
    38    16    17 1   
    39    16    55 1   
    40    16    56 1   
    41    17    18 1   
    42    17    57 1   
    43    17    58 1   
    44    18    19 1   
    45    19    20 1   
    46    19    21 1   
    47    19    59 1   
    48    20    60 1   
    49    20    61 1   
    50    20    62 1   
    51    21    63 1   
    52    21    64 1   
    53    21    65 1   
    54    22    23 1   
    55    22    66 1   
    56    23    24 1   
    57    23    26 1   
    58    23    67 1   
    59    24    25 1   
    60    24    36 1   
    61    26    27 1   
    62    26    68 1   
    63    26    69 1   
    64    27    28 2   
    65    27    29 1   
    66    28    30 1   
    67    28    70 1   
    68    29    31 ar  
    69    29    32 ar  
    70    30    31 1   
    71    30    71 1   
    72    31    33 ar  
    73    32    34 ar  
    74    32    72 1   
    75    33    35 ar  
    76    33    73 1   
    77    34    35 ar  
    78    34    74 1   
    79    35    75 1   
@<TRIPOS>SUBSTRUCTURE
     1 WAA         1 TEMP              0 ****  ****    0 ROOT
