@<TRIPOS>MOLECULE
WAA
   75    79     1     0     0
SMALL
No Charge or Current Charge


@<TRIPOS>ATOM
      1 O1           1.8470    -0.3710     1.6570 o          1 WAA      -0.622100
      2 C1           1.4890     0.1250     0.5950 c          1 WAA       0.599100
      3 C2           0.4550    -0.5930    -0.3560 c6         1 WAA      -0.114000
      4 C3           0.7240    -2.1370    -0.2140 c3         1 WAA      -0.085100
      5 C4           0.6650    -0.1690    -1.8580 c6         1 WAA      -0.072400
      6 C5          -0.4430    -0.6750    -2.8100 c6         1 WAA      -0.071400
      7 C6          -1.8200    -0.1130    -2.3960 c6         1 WAA      -0.067400
      8 C7          -2.2300    -0.4710    -0.9260 c6         1 WAA      -0.025000
      9 C8          -2.6220    -1.9900    -0.8370 c3         1 WAA      -0.076100
     10 C9          -0.9980    -0.0810     0.0430 c6         1 WAA      -0.037700
     11 C10         -1.3660    -0.3410     1.5360 c6         1 WAA      -0.042200
     12 C11         -2.8040     0.0100     1.8940 c2         1 WAA      -0.187200
     13 C12         -3.7810     0.2800     1.0000 ce         1 WAA      -0.098200
     14 C13         -5.1630     0.5170     1.4360 ce         1 WAA      -0.163000
     15 C14         -3.5150     0.4000    -0.5190 c6         1 WAA      -0.013500
     16 C15         -4.8020     0.2270    -1.4050 c6         1 WAA      -0.064400
     17 C16         -5.9770    -0.4610    -0.6780 c6         1 WAA      -0.033200
     18 C17         -6.2290     0.1960     0.6740 c2         1 WAA      -0.128400
     19 C18         -7.6780     0.3900     1.1130 c3         1 WAA      -0.015500
     20 C19         -8.3910     1.4810     0.2820 c3         1 WAA      -0.082100
     21 C20         -8.4710    -0.9370     1.1330 c3         1 WAA      -0.082100
     22 N            2.0790     1.2870     0.1290 ns         1 WAA      -0.458900
     23 CA           3.1240     2.0700     0.8370 c3         1 WAA      -0.028300
     24 C            2.8600     3.5980     0.6710 c          1 WAA       0.719000
     25 O            2.6250     4.0310    -0.4500 o          1 WAA      -0.723500
     26 CB           4.5610     1.7080     0.3800 c3         1 WAA      -0.018200
     27 CG           4.9220     0.2560     0.5660 cc         1 WAA      -0.101400
     28 CD1          5.4340    -0.3450     1.7130 cd         1 WAA      -0.174100
     29 CD2          4.7770    -0.8000    -0.3970 ca         1 WAA      -0.094800
     30 NE1          5.5950    -1.7350     1.4930 na         1 WAA      -0.233700
     31 CE2          5.1780    -1.9650     0.1950 ca         1 WAA      -0.052200
     32 CE3          4.3270    -0.7630    -1.7250 ca         1 WAA      -0.055000
     33 CZ2          5.1420    -3.1860    -0.4920 ca         1 WAA      -0.140000
     34 CZ3          4.2780    -1.9780    -2.4410 ca         1 WAA      -0.159000
     35 CH2          4.6820    -3.1860    -1.8260 ca         1 WAA      -0.103000
     36 OXT          2.8110     4.2880     1.6800 o          1 WAA      -0.723500
     37 H1           0.4210    -2.5280     0.7630 hc         1 WAA       0.031033
     38 H2           0.2380    -2.7450    -0.9780 hc         1 WAA       0.031033
     39 H3           1.7960    -2.3450    -0.3180 hc         1 WAA       0.031033
     40 H4           0.6910     0.9240    -1.9620 hc         1 WAA       0.067700
     41 H5           1.6360    -0.5310    -2.2170 hc         1 WAA       0.067700
     42 H6          -0.2150    -0.3420    -3.8320 hc         1 WAA       0.029700
     43 H7          -0.4630    -1.7700    -2.8560 hc         1 WAA       0.029700
     44 H8          -1.8020     0.9790    -2.5190 hc         1 WAA       0.032700
     45 H9          -2.5650    -0.4830    -3.1120 hc         1 WAA       0.032700
     46 H10         -2.8540    -2.2990     0.1890 hc         1 WAA       0.027367
     47 H11         -3.5080    -2.2110    -1.4400 hc         1 WAA       0.027367
     48 H12         -1.8480    -2.6600    -1.2110 hc         1 WAA       0.027367
     49 H13         -0.9340     1.0150    -0.0300 hc         1 WAA       0.078700
     50 H14         -1.2080    -1.3970     1.7890 hc         1 WAA       0.057700
     51 H15         -0.7000     0.2310     2.1960 hc         1 WAA       0.057700
     52 H16         -3.0420    -0.0430     2.9570 ha         1 WAA       0.160000
     53 H17         -5.3020     0.9230     2.4390 ha         1 WAA       0.168000
     54 H18         -3.2150     1.4470    -0.6630 hc         1 WAA       0.058700
     55 H19         -5.1410     1.2250    -1.7140 hc         1 WAA       0.035700
     56 H20         -4.5970    -0.3070    -2.3390 hc         1 WAA       0.035700
     57 H21         -6.8680    -0.4180    -1.3170 hc         1 WAA       0.038700
     58 H22         -5.7550    -1.5260    -0.5270 hc         1 WAA       0.038700
     59 H23         -7.6710     0.7540     2.1480 hc         1 WAA       0.044700
     60 H24         -9.3910     1.6810     0.6860 hc         1 WAA       0.030033
     61 H25         -7.8210     2.4170     0.3100 hc         1 WAA       0.030033
     62 H26         -8.5020     1.1770    -0.7650 hc         1 WAA       0.030033
     63 H27         -8.5960    -1.3440     0.1220 hc         1 WAA       0.030033
     64 H28         -7.9510    -1.6850     1.7430 hc         1 WAA       0.030033
     65 H29         -9.4680    -0.7830     1.5620 hc         1 WAA       0.030033
     66 H30          1.7530     1.6410    -0.7610 hn         1 WAA       0.294500
     67 H31          3.0470     1.8530     1.9100 h1         1 WAA       0.055700
     68 H32          4.6830     1.9860    -0.6740 hc         1 WAA       0.057200
     69 H33          5.2710     2.3290     0.9390 hc         1 WAA       0.057200
     70 H34          5.6760     0.1130     2.6690 h4         1 WAA       0.214000
     71 H35          5.9380    -2.4250     2.1540 hn         1 WAA       0.337000
     72 H36          4.0210     0.1710    -2.1880 ha         1 WAA       0.121000
     73 H37          5.4600    -4.1090    -0.0130 ha         1 WAA       0.100000
     74 H38          3.9280    -1.9840    -3.4710 ha         1 WAA       0.101000
     75 H39          4.6410    -4.1180    -2.3850 ha         1 WAA       0.096000
@<TRIPOS>BOND
     1     1     2 2   
     2     2     3 1   
     3     2    22 1   
     4     3     4 1   
     5     3     5 1   
     6     3    10 1   
     7     4    37 1   
     8     4    38 1   
     9     4    39 1   
    10     5     6 1   
    11     5    40 1   
    12     5    41 1   
    13     6     7 1   
    14     6    42 1   
    15     6    43 1   
    16     7     8 1   
    17     7    44 1   
    18     7    45 1   
    19     8     9 1   
    20     8    10 1   
    21     8    15 1   
    22     9    46 1   
    23     9    47 1   
    24     9    48 1   
    25    10    11 1   
    26    10    49 1   
    27    11    12 1   
    28    11    50 1   
    29    11    51 1   
    30    12    13 2   
    31    12    52 1   
    32    13    14 1   
    33    13    15 1   
    34    14    18 2   
    35    14    53 1   
    36    15    16 1   
    37    15    54 1   
    38    16    17 1   
    39    16    55 1   
    40    16    56 1   
    41    17    18 1   
    42    17    57 1   
    43    17    58 1   
    44    18    19 1   
    45    19    20 1   
    46    19    21 1   
    47    19    59 1   
    48    20    60 1   
    49    20    61 1   
    50    20    62 1   
    51    21    63 1   
    52    21    64 1   
    53    21    65 1   
    54    22    23 1   
    55    22    66 1   
    56    23    24 1   
    57    23    26 1   
    58    23    67 1   
    59    24    25 1   
    60    24    36 1   
    61    26    27 1   
    62    26    68 1   
    63    26    69 1   
    64    27    28 2   
    65    27    29 1   
    66    28    30 1   
    67    28    70 1   
    68    29    31 ar  
    69    29    32 ar  
    70    30    31 1   
    71    30    71 1   
    72    31    33 ar  
    73    32    34 ar  
    74    32    72 1   
    75    33    35 ar  
    76    33    73 1   
    77    34    35 ar  
    78    34    74 1   
    79    35    75 1   
@<TRIPOS>SUBSTRUCTURE
     1 WAA         1 TEMP              0 ****  ****    0 ROOT
