@<TRIPOS>MOLECULE
WAB
   55    59     1     0     0
SMALL
No Charge or Current Charge


@<TRIPOS>ATOM
      1 C18         14.5990   -23.9660    23.4160 c5         1 WAB       0.151600
      2 C14         15.4670   -24.7620    25.7550 c6         1 WAB      -0.087900
      3 C13         16.5910   -23.7120    25.9540 c6         1 WAB       0.217300
      4 C17         17.7220   -24.5490    23.8980 c6         1 WAB       0.217300
      5 C16         16.6170   -25.6180    23.7250 c6         1 WAB      -0.087900
      6 C15         15.2210   -25.1460    24.2510 c5         1 WAB      -0.076000
      7 N3          22.6670   -22.2520    27.2210 nb         1 WAB      -0.042000
      8 C8          20.3430   -24.2920    25.4560 ca         1 WAB       0.015900
      9 C5          20.2550   -22.1420    27.0760 ca         1 WAB       0.267000
     10 C6          20.2600   -21.0210    27.9250 ca         1 WAB      -0.075000
     11 C1          21.4780   -20.5300    28.4140 ca         1 WAB      -0.103000
     12 C4          21.5060   -22.7490    26.7340 ca         1 WAB      -0.064000
     13 C20         12.8400   -25.2870    24.2540 c5         1 WAB       0.122300
     14 C21         14.0840   -26.2210    24.0770 c5         1 WAB       0.143500
     15 C2          22.6620   -21.1790    28.0400 ca         1 WAB       0.141300
     16 C23         11.4670   -25.8720    23.8540 c3         1 WAB      -0.096100
     17 C24         25.1380   -22.1030    28.8060 ca         1 WAB      -0.017000
     18 C25         26.2290   -22.3550    27.9570 ca         1 WAB      -0.212000
     19 C26         26.9390   -23.5630    28.0760 ca         1 WAB       0.397900
     20 C28         25.5890   -24.2650    29.7790 ca         1 WAB       0.624900
     21 C29         24.8050   -23.0880    29.7560 ca         1 WAB      -0.006000
     22 C9          19.1180   -23.6830    25.7950 ca         1 WAB       0.596900
     23 N10         19.0770   -22.6110    26.6080 nb         1 WAB      -0.750000
     24 N12         17.8690   -24.1520    25.3240 nh         1 WAB      -0.774300
     25 N22         14.1100   -26.9020    22.7590 n8         1 WAB      -0.998200
     26 N27         26.6250   -24.5160    28.9830 nb         1 WAB      -0.745000
     27 N30         25.4070   -25.2920    30.6260 nv         1 WAB      -1.056900
     28 N7          21.5180   -23.8290    25.9200 nb         1 WAB      -0.044000
     29 O19         13.1570   -24.1520    23.4210 os         1 WAB      -0.469000
     30 Cl1         23.4590   -22.8570    30.8870 cl         1 WAB      -0.195000
     31 H1          14.9390   -23.9900    22.3710 h1         1 WAB       0.047200
     32 H2          14.8430   -22.9770    23.8250 h1         1 WAB       0.047200
     33 H3          15.7280   -25.6660    26.3230 hc         1 WAB       0.061700
     34 H4          14.5580   -24.3680    26.2240 hc         1 WAB       0.061700
     35 H5          16.7200   -23.5700    27.0370 h1         1 WAB       0.063950
     36 H6          16.2760   -22.7440    25.5380 h1         1 WAB       0.063950
     37 H7          17.4770   -23.6680    23.2860 h1         1 WAB       0.063950
     38 H8          18.6600   -24.9610    23.4990 h1         1 WAB       0.063950
     39 H9          16.5590   -25.8780    22.6600 hc         1 WAB       0.061700
     40 H10         16.9190   -26.5370    24.2460 hc         1 WAB       0.061700
     41 H11         20.3900   -25.1710    24.8180 h4         1 WAB       0.033100
     42 H12         19.3240   -20.5410    28.1990 ha         1 WAB       0.138000
     43 H13         21.5040   -19.6660    29.0730 ha         1 WAB       0.140000
     44 H14         12.7510   -24.9440    25.2920 h1         1 WAB       0.049700
     45 H15         14.1320   -26.9920    24.8610 h1         1 WAB       0.075700
     46 H16         11.2510   -26.7850    24.4220 hc         1 WAB       0.045700
     47 H17         10.6650   -25.1540    24.0650 hc         1 WAB       0.045700
     48 H18         11.4220   -26.1170    22.7870 hc         1 WAB       0.045700
     49 H19         26.5290   -21.6270    27.2080 ha         1 WAB       0.133000
     50 H20         27.7870   -23.7740    27.4250 h4         1 WAB       0.020100
     51 H21         13.3080   -27.5380    22.6960 hn         1 WAB       0.403000
     52 H22         13.9040   -26.1970    22.0430 hn         1 WAB       0.403000
     53 H24         26.1950   -25.9230    30.7020 hn         1 WAB       0.484500
     54 H25         24.8880   -25.1040    31.4770 hn         1 WAB       0.484500
     55 S11         24.2270   -20.5660    28.6590 ss         1 WAB      -0.095300
@<TRIPOS>BOND
     1     1     6 1   
     2     1    29 1   
     3     1    31 1   
     4     1    32 1   
     5     2     3 1   
     6     2     6 1   
     7     2    33 1   
     8     2    34 1   
     9     3    24 1   
    10     3    35 1   
    11     3    36 1   
    12     4     5 1   
    13     4    24 1   
    14     4    37 1   
    15     4    38 1   
    16     5     6 1   
    17     5    39 1   
    18     5    40 1   
    19     6    14 1   
    20     7    12 ar  
    21     7    15 ar  
    22     8    22 ar  
    23     8    28 ar  
    24     8    41 1   
    25     9    10 ar  
    26     9    12 ar  
    27     9    23 ar  
    28    10    11 ar  
    29    10    42 1   
    30    11    15 ar  
    31    11    43 1   
    32    12    28 ar  
    33    13    14 1   
    34    13    16 1   
    35    13    29 1   
    36    13    44 1   
    37    14    25 1   
    38    14    45 1   
    39    15    55 1   
    40    16    46 1   
    41    16    47 1   
    42    16    48 1   
    43    17    18 ar  
    44    17    21 ar  
    45    17    55 1   
    46    18    19 ar  
    47    18    49 1   
    48    19    26 ar  
    49    19    50 1   
    50    20    21 ar  
    51    20    26 ar  
    52    20    27 1   
    53    21    30 1   
    54    22    23 ar  
    55    22    24 1   
    56    25    51 1   
    57    25    52 1   
    58    27    53 1   
    59    27    54 1   
@<TRIPOS>SUBSTRUCTURE
     1 WAB         1 TEMP              0 ****  ****    0 ROOT
