@<TRIPOS>MOLECULE
WAB
   55    59     1     0     0
SMALL
abcg2


@<TRIPOS>ATOM
      1 C18         14.7770   -24.4720    22.6080 c5         1 WAB       0.151600
      2 C14         15.6330   -23.5500    24.8130 c6         1 WAB      -0.087900
      3 C13         17.0020   -23.0240    24.3800 c6         1 WAB       0.217300
      4 C17         17.6810   -25.2370    23.6680 c6         1 WAB       0.217300
      5 C16         16.3450   -25.8430    24.0970 c6         1 WAB      -0.087900
      6 C15         15.2050   -24.8200    24.0440 c5         1 WAB      -0.076000
      7 N3          21.7270   -24.1950    28.4400 nb         1 WAB      -0.042000
      8 C8          19.7740   -25.2240    25.7370 ca         1 WAB       0.015900
      9 C5          19.9530   -23.0280    27.2590 ca         1 WAB       0.267000
     10 C6          20.1280   -21.9180    28.1110 ca         1 WAB      -0.075000
     11 C1          21.0960   -21.9680    29.0830 ca         1 WAB      -0.103000
     12 C4          20.7960   -24.1500    27.4730 ca         1 WAB      -0.064000
     13 C20         12.8530   -24.3920    23.9720 c5         1 WAB       0.122300
     14 C21         13.8670   -25.3560    24.6180 c5         1 WAB       0.143500
     15 C2          21.8770   -23.1340    29.2070 ca         1 WAB       0.141300
     16 C23         11.4310   -24.8900    23.8350 c3         1 WAB      -0.096100
     17 C24         24.6150   -23.1190    29.6060 ca         1 WAB      -0.017000
     18 C25         24.6910   -22.8140    28.2410 ca         1 WAB      -0.212000
     19 C26         25.9410   -22.7450    27.6590 ca         1 WAB       0.397900
     20 C28         27.0410   -23.2420    29.6130 ca         1 WAB       0.624900
     21 C29         25.8070   -23.3290    30.2880 ca         1 WAB      -0.006000
     22 C9          18.9100   -24.0800    25.5040 ca         1 WAB       0.596900
     23 N10         19.0170   -23.0120    26.2840 nb         1 WAB      -0.750000
     24 N12         18.0080   -24.0780    24.4970 nh         1 WAB      -0.774300
     25 N22         13.6720   -26.7760    24.3210 n8         1 WAB      -0.998200
     26 N27         27.0900   -22.9490    28.3070 nb         1 WAB      -0.745000
     27 N30         28.2230   -23.4940    30.2430 nv         1 WAB      -1.056900
     28 N7          20.6680   -25.2540    26.6760 nb         1 WAB      -0.044000
     29 O19         13.3900   -24.1050    22.6620 os         1 WAB      -0.469000
     30 CL1         25.7960   -23.7020    31.9950 cl         1 WAB      -0.195000
     31 H1          14.8940   -25.3390    21.9470 h1         1 WAB       0.047200
     32 H2          15.3410   -23.6420    22.1800 h1         1 WAB       0.047200
     33 H3          15.6720   -23.7810    25.8810 hc         1 WAB       0.061700
     34 H4          14.9000   -22.7530    24.6810 hc         1 WAB       0.061700
     35 H5          17.2980   -22.1790    24.9900 h1         1 WAB       0.063950
     36 H6          16.9810   -22.7010    23.3370 h1         1 WAB       0.063950
     37 H7          17.6280   -24.8890    22.6330 h1         1 WAB       0.063950
     38 H8          18.4690   -25.9800    23.7060 h1         1 WAB       0.063950
     39 H9          16.1240   -26.6960    23.4560 hc         1 WAB       0.061700
     40 H10         16.4420   -26.2220    25.1180 hc         1 WAB       0.061700
     41 H11         19.6910   -26.1090    25.1220 h4         1 WAB       0.033100
     42 H12         19.5050   -21.0430    27.9770 ha         1 WAB       0.138000
     43 H13         21.2710   -21.1310    29.7440 ha         1 WAB       0.140000
     44 H14         12.8440   -23.4610    24.5500 h1         1 WAB       0.049700
     45 H15         13.8480   -25.2450    25.7030 h1         1 WAB       0.075700
     46 H16         11.0100   -25.1000    24.8220 hc         1 WAB       0.045700
     47 H17         10.8110   -24.1290    23.3580 hc         1 WAB       0.045700
     48 H18         11.3850   -25.7990    23.2360 hc         1 WAB       0.045700
     49 H19         23.8050   -22.6320    27.6530 ha         1 WAB       0.133000
     50 H20         26.0270   -22.5060    26.6040 h4         1 WAB       0.020100
     51 H21         12.7910   -27.0880    24.7130 hn         1 WAB       0.403000
     52 H22         13.6070   -26.9320    23.3200 hn         1 WAB       0.403000
     53 H24         29.0550   -23.1990    29.7550 hn         1 WAB       0.484500
     54 H25         28.2590   -23.4430    31.2480 hn         1 WAB       0.484500
     55 S11         23.1000   -23.2230    30.5090 ss         1 WAB      -0.095300
@<TRIPOS>BOND
     1     1     6 1   
     2     1    29 1   
     3     1    31 1   
     4     1    32 1   
     5     2     3 1   
     6     2     6 1   
     7     2    33 1   
     8     2    34 1   
     9     3    24 1   
    10     3    35 1   
    11     3    36 1   
    12     4     5 1   
    13     4    24 1   
    14     4    37 1   
    15     4    38 1   
    16     5     6 1   
    17     5    39 1   
    18     5    40 1   
    19     6    14 1   
    20     7    12 ar  
    21     7    15 ar  
    22     8    22 ar  
    23     8    28 ar  
    24     8    41 1   
    25     9    10 ar  
    26     9    12 ar  
    27     9    23 ar  
    28    10    11 ar  
    29    10    42 1   
    30    11    15 ar  
    31    11    43 1   
    32    12    28 ar  
    33    13    14 1   
    34    13    16 1   
    35    13    29 1   
    36    13    44 1   
    37    14    25 1   
    38    14    45 1   
    39    15    55 1   
    40    16    46 1   
    41    16    47 1   
    42    16    48 1   
    43    17    18 ar  
    44    17    21 ar  
    45    17    55 1   
    46    18    19 ar  
    47    18    49 1   
    48    19    26 ar  
    49    19    50 1   
    50    20    21 ar  
    51    20    26 ar  
    52    20    27 1   
    53    21    30 1   
    54    22    23 ar  
    55    22    24 1   
    56    25    51 1   
    57    25    52 1   
    58    27    53 1   
    59    27    54 1   
@<TRIPOS>SUBSTRUCTURE
     1 WAB         1 TEMP              0 ****  ****    0 ROOT
