@<TRIPOS>MOLECULE
WAC
   57    60     1     0     0
SMALL
No Charge or Current Charge


@<TRIPOS>ATOM
      1 C1           2.6940    -4.3220    -0.1590 ca         1 WAC      -0.095000
      2 C2           1.7370    -3.3410     0.1810 ca         1 WAC      -0.124000
      3 C3           2.1430    -1.9950     0.1920 ca         1 WAC      -0.062200
      4 C4           3.4300    -1.6450    -0.1210 ca         1 WAC      -0.044800
      5 C5           4.4060    -2.5930    -0.4580 ca         1 WAC      -0.055000
      6 C6           4.0220    -3.9500    -0.4760 ca         1 WAC      -0.130000
      7 N7           1.4130    -0.8450     0.4970 na         1 WAC      -0.076700
      8 C8           2.2220     0.3090     0.3260 cc         1 WAC       0.003700
      9 C9           3.4710    -0.2060    -0.0040 cd         1 WAC      -0.232400
     10 C10          1.9190     1.7990     0.5390 c6         1 WAC       0.246700
     11 N11          2.9710     2.6290    -0.1440 n3         1 WAC      -0.722600
     12 C12          4.3640     2.1680     0.1800 c6         1 WAC       0.067800
     13 C13          4.6570     0.6760    -0.1410 c          1 WAC       0.621300
     14 C16          0.5220     2.2290    -0.0000 c6         1 WAC      -0.075400
     15 C17          0.2780     3.7450     0.1980 c6         1 WAC      -0.076400
     16 C18          1.4290     4.5690    -0.4190 c6         1 WAC      -0.076400
     17 C19          2.7990     4.0840     0.1060 c6         1 WAC       0.174800
     18 C29          0.0570    -0.9400     1.0700 c3         1 WAC       0.072600
     19 C30         -1.0480    -1.0540    -0.0030 c3         1 WAC      -0.104400
     20 C33         -2.4620    -1.0160     0.5990 c3         1 WAC       0.204800
     21 N36         -3.4560    -1.1270    -0.4770 n7         1 WAC      -0.872300
     22 S39         -5.0760    -1.0540    -0.0890 s6         1 WAC       1.171100
     23 C40         -5.2910     0.6410     0.5590 c3         1 WAC      -0.306700
     24 C41         -4.8190     1.7400    -0.4340 c3         1 WAC      -0.075600
     25 C42         -6.7550     0.8780     1.0120 c3         1 WAC      -0.075600
     26 O44         -5.7910    -1.1990    -1.3580 o          1 WAC      -0.522000
     27 O45         -5.2870    -2.0270     0.9850 o          1 WAC      -0.522000
     28 O46          5.7740     0.2790    -0.4610 o          1 WAC      -0.537100
     29 H1           2.4080    -5.3720    -0.1750 ha         1 WAC       0.113000
     30 H2           0.7190    -3.6310     0.4260 ha         1 WAC       0.115000
     31 H5           5.4240    -2.3000    -0.7010 ha         1 WAC       0.136000
     32 H6           4.7510    -4.7150    -0.7350 ha         1 WAC       0.114000
     33 H10          1.9430     2.0030     1.6200 h1         1 WAC       0.034700
     34 H121         5.1070     2.7590    -0.3740 h1         1 WAC       0.059200
     35 H122         4.5690     2.2960     1.2530 h1         1 WAC       0.059200
     36 H161         0.4430     1.9740    -1.0660 hc         1 WAC       0.050200
     37 H162        -0.2820     1.6960     0.5140 hc         1 WAC       0.050200
     38 H171        -0.6800     4.0360    -0.2550 hc         1 WAC       0.039700
     39 H172         0.1990     3.9680     1.2720 hc         1 WAC       0.039700
     40 H181         1.4040     4.4780    -1.5130 hc         1 WAC       0.052700
     41 H182         1.2960     5.6350    -0.1880 hc         1 WAC       0.052700
     42 H191         2.8750     4.2990     1.1820 h1         1 WAC       0.034700
     43 H192         3.5910     4.6560    -0.3990 h1         1 WAC       0.034700
     44 H291         0.0130    -1.8170     1.7280 h1         1 WAC       0.059200
     45 H292        -0.1190    -0.0670     1.7090 h1         1 WAC       0.059200
     46 H301        -0.9400    -0.2390    -0.7270 hc         1 WAC       0.070700
     47 H302        -0.9170    -1.9900    -0.5590 hc         1 WAC       0.070700
     48 H331        -2.5680    -1.8470     1.3110 h1         1 WAC       0.048200
     49 H332        -2.5830    -0.0780     1.1580 h1         1 WAC       0.048200
     50 H36         -3.3710    -0.3230    -1.0940 hn         1 WAC       0.486000
     51 H40         -4.6580     0.6850     1.4520 h1         1 WAC       0.084700
     52 H411        -5.3700     1.6820    -1.3820 hc         1 WAC       0.051200
     53 H412        -4.9870     2.7370    -0.0090 hc         1 WAC       0.051200
     54 H413        -3.7470     1.6590    -0.6490 hc         1 WAC       0.051200
     55 H421        -7.0620     0.1320     1.7570 hc         1 WAC       0.051200
     56 H422        -6.8640     1.8690     1.4690 hc         1 WAC       0.051200
     57 H423        -7.4470     0.8170     0.1620 hc         1 WAC       0.051200
@<TRIPOS>BOND
     1     1     2 ar  
     2     1     6 ar  
     3     1    29 1   
     4     2     3 ar  
     5     2    30 1   
     6     3     4 ar  
     7     3     7 1   
     8     4     5 ar  
     9     4     9 1   
    10     5     6 ar  
    11     5    31 1   
    12     6    32 1   
    13     7     8 1   
    14     7    18 1   
    15     8     9 2   
    16     8    10 1   
    17     9    13 1   
    18    10    11 1   
    19    10    14 1   
    20    10    33 1   
    21    11    12 1   
    22    11    17 1   
    23    12    13 1   
    24    12    34 1   
    25    12    35 1   
    26    13    28 2   
    27    14    15 1   
    28    14    36 1   
    29    14    37 1   
    30    15    16 1   
    31    15    38 1   
    32    15    39 1   
    33    16    17 1   
    34    16    40 1   
    35    16    41 1   
    36    17    42 1   
    37    17    43 1   
    38    18    19 1   
    39    18    44 1   
    40    18    45 1   
    41    19    20 1   
    42    19    46 1   
    43    19    47 1   
    44    20    21 1   
    45    20    48 1   
    46    20    49 1   
    47    21    22 1   
    48    21    50 1   
    49    22    23 1   
    50    22    26 2   
    51    22    27 2   
    52    23    24 1   
    53    23    25 1   
    54    23    51 1   
    55    24    52 1   
    56    24    53 1   
    57    24    54 1   
    58    25    55 1   
    59    25    56 1   
    60    25    57 1   
@<TRIPOS>SUBSTRUCTURE
     1 WAC         1 TEMP              0 ****  ****    0 ROOT
