@<TRIPOS>MOLECULE
WAC
   57    60     1     0     0
SMALL
abcg2


@<TRIPOS>ATOM
      1 C1           2.4090    -4.1990     0.0110 ca         1 WAC      -0.095000
      2 C2           1.5430    -3.1600     0.3040 ca         1 WAC      -0.124000
      3 C3           2.0480    -1.8670     0.2260 ca         1 WAC      -0.062200
      4 C4           3.3820    -1.6040    -0.1260 ca         1 WAC      -0.044800
      5 C5           4.2400    -2.6670    -0.4140 ca         1 WAC      -0.055000
      6 C6           3.7420    -3.9550    -0.3460 ca         1 WAC      -0.130000
      7 N7           1.4170    -0.6600     0.4830 na         1 WAC      -0.076700
      8 C8           2.3040     0.3510     0.2950 cc         1 WAC       0.003700
      9 C9           3.5280    -0.1810    -0.0610 cd         1 WAC      -0.232400
     10 C10          2.0480     1.8200     0.4550 c6         1 WAC       0.246700
     11 N11          3.1990     2.5460    -0.0790 n3         1 WAC      -0.722600
     12 C12          4.4890     2.0530     0.3540 c6         1 WAC       0.067800
     13 C13          4.7180     0.6210    -0.0710 c          1 WAC       0.621300
     14 C16          0.7930     2.3140    -0.2790 c6         1 WAC      -0.075400
     15 C17          0.6220     3.8190    -0.1150 c6         1 WAC      -0.076400
     16 C18          1.8750     4.5530    -0.5600 c6         1 WAC      -0.076400
     17 C19          3.0900     3.9790     0.1440 c6         1 WAC       0.174800
     18 C29          0.0540    -0.5930     0.9730 c3         1 WAC       0.072600
     19 C30         -0.9870    -0.7480    -0.1300 c3         1 WAC      -0.104400
     20 C33         -2.3860    -0.5870     0.4440 c3         1 WAC       0.204800
     21 N36         -3.3720    -0.7180    -0.6230 n7         1 WAC      -0.872300
     22 S39         -4.9480    -1.0260    -0.2520 s6         1 WAC       1.171100
     23 C40         -5.5590     0.3560     0.7380 c3         1 WAC      -0.306700
     24 C41         -5.4370     1.6590    -0.0340 c3         1 WAC      -0.075600
     25 C42         -6.9900     0.0580     1.1660 c3         1 WAC      -0.075600
     26 O44         -5.6630    -1.0450    -1.5220 o          1 WAC      -0.522000
     27 O45         -4.9630    -2.2160     0.5890 o          1 WAC      -0.522000
     28 O46          5.8350     0.1890    -0.3060 o          1 WAC      -0.537100
     29 H1           2.0490    -5.2180     0.0620 ha         1 WAC       0.113000
     30 H2           0.5180    -3.3630     0.5850 ha         1 WAC       0.115000
     31 H5           5.2720    -2.4850    -0.6810 ha         1 WAC       0.136000
     32 H6           4.3910    -4.7930    -0.5690 ha         1 WAC       0.114000
     33 H10          1.9180     2.0250     1.5360 h1         1 WAC       0.034700
     34 H121         5.2680     2.6780    -0.0870 h1         1 WAC       0.059200
     35 H122         4.6260     2.1020     1.4500 h1         1 WAC       0.059200
     36 H161         0.8800     2.0510    -1.3360 hc         1 WAC       0.050200
     37 H162        -0.0990     1.8260     0.1050 hc         1 WAC       0.050200
     38 H171        -0.2500     4.1530    -0.6780 hc         1 WAC       0.039700
     39 H172         0.4200     4.0420     0.9380 hc         1 WAC       0.039700
     40 H181         2.0020     4.4480    -1.6410 hc         1 WAC       0.052700
     41 H182         1.7980     5.6210    -0.3450 hc         1 WAC       0.052700
     42 H191         3.0440     4.2160     1.2210 h1         1 WAC       0.034700
     43 H192         3.9970     4.4500    -0.2410 h1         1 WAC       0.034700
     44 H291        -0.0700    -1.3800     1.7190 h1         1 WAC       0.059200
     45 H292        -0.0790     0.3440     1.5110 h1         1 WAC       0.059200
     46 H301        -0.8150    -0.0040    -0.9110 hc         1 WAC       0.070700
     47 H302        -0.9010    -1.7290    -0.6010 hc         1 WAC       0.070700
     48 H331        -2.5700    -1.3670     1.1830 h1         1 WAC       0.048200
     49 H332        -2.4690     0.3770     0.9570 h1         1 WAC       0.048200
     50 H36         -3.2740    -0.0400    -1.3700 hn         1 WAC       0.486000
     51 H40         -4.9080     0.3760     1.6170 h1         1 WAC       0.084700
     52 H411        -6.0620     1.6540    -0.9260 hc         1 WAC       0.051200
     53 H412        -5.7710     2.4770     0.6030 hc         1 WAC       0.051200
     54 H413        -4.4100     1.8800    -0.3260 hc         1 WAC       0.051200
     55 H421        -7.0650    -0.8730     1.7250 hc         1 WAC       0.051200
     56 H422        -7.3370     0.8620     1.8150 hc         1 WAC       0.051200
     57 H423        -7.6590     0.0100     0.3070 hc         1 WAC       0.051200
@<TRIPOS>BOND
     1     1     2 ar  
     2     1     6 ar  
     3     1    29 1   
     4     2     3 ar  
     5     2    30 1   
     6     3     4 ar  
     7     3     7 1   
     8     4     5 ar  
     9     4     9 1   
    10     5     6 ar  
    11     5    31 1   
    12     6    32 1   
    13     7     8 1   
    14     7    18 1   
    15     8     9 2   
    16     8    10 1   
    17     9    13 1   
    18    10    11 1   
    19    10    14 1   
    20    10    33 1   
    21    11    12 1   
    22    11    17 1   
    23    12    13 1   
    24    12    34 1   
    25    12    35 1   
    26    13    28 2   
    27    14    15 1   
    28    14    36 1   
    29    14    37 1   
    30    15    16 1   
    31    15    38 1   
    32    15    39 1   
    33    16    17 1   
    34    16    40 1   
    35    16    41 1   
    36    17    42 1   
    37    17    43 1   
    38    18    19 1   
    39    18    44 1   
    40    18    45 1   
    41    19    20 1   
    42    19    46 1   
    43    19    47 1   
    44    20    21 1   
    45    20    48 1   
    46    20    49 1   
    47    21    22 1   
    48    21    50 1   
    49    22    23 1   
    50    22    26 2   
    51    22    27 2   
    52    23    24 1   
    53    23    25 1   
    54    23    51 1   
    55    24    52 1   
    56    24    53 1   
    57    24    54 1   
    58    25    55 1   
    59    25    56 1   
    60    25    57 1   
@<TRIPOS>SUBSTRUCTURE
     1 WAC         1 TEMP              0 ****  ****    0 ROOT
