@<TRIPOS>MOLECULE
WAD
   56    55     1     0     0
SMALL
No Charge or Current Charge


@<TRIPOS>ATOM
      1 C4         -47.6440   -13.3190   -33.5030 c3         1 WAD      -0.081400
      2 C5         -47.7380   -13.9580   -32.1000 c3         1 WAD      -0.062400
      3 C6         -48.9530   -14.9030   -31.9480 c3         1 WAD      -0.079400
      4 C13        -54.4310   -16.6910   -28.2790 c3         1 WAD      -0.073400
      5 C15        -56.5010   -15.2650   -27.5980 c3         1 WAD      -0.073400
      6 CA         -56.1780   -13.4330   -29.4290 c3         1 WAD      -0.206400
      7 C          -56.7380   -12.9380   -30.7750 c          1 WAD       0.714000
      8 O          -56.2090   -13.3330   -31.8020 o          1 WAD      -0.746000
      9 CB         -56.8720   -14.7560   -29.0150 c3         1 WAD      -0.058400
     10 CD1        -49.0320   -15.6390   -30.5890 c3         1 WAD      -0.061400
     11 CD2        -51.9220   -16.0190   -28.1400 c3         1 WAD      -0.085400
     12 CE1        -49.2880   -14.7140   -29.3710 c3         1 WAD      -0.085400
     13 CE2        -50.4780   -16.5220   -27.8830 c3         1 WAD      -0.101400
     14 CZ         -49.3600   -15.4500   -28.0080 c3         1 WAD       0.175300
     15 OH         -49.5210   -14.4790   -26.9710 oh         1 WAD      -0.657000
     16 C1         -46.1090   -12.5960   -36.2240 c3         1 WAD      -0.085100
     17 C12        -52.9860   -17.1230   -27.9360 c3         1 WAD      -0.068400
     18 C14        -55.0020   -15.5810   -27.3610 c3         1 WAD      -0.069400
     19 C2         -46.3450   -11.6560   -35.0230 c3         1 WAD      -0.073400
     20 C3         -46.4290   -12.3740   -33.6550 c3         1 WAD      -0.067400
     21 O2         -57.7190   -12.2090   -30.7580 o          1 WAD      -0.746000
     22 H9         -48.5650   -12.7590   -33.7060 hc         1 WAD       0.051700
     23 H8         -47.5820   -14.1190   -34.2510 hc         1 WAD       0.051700
     24 H10        -46.8170   -14.5190   -31.8970 hc         1 WAD       0.030700
     25 H11        -47.7980   -13.1570   -31.3530 hc         1 WAD       0.030700
     26 H13        -49.8790   -14.3350   -32.1050 hc         1 WAD       0.052200
     27 H12        -48.9120   -15.6570   -32.7440 hc         1 WAD       0.052200
     28 H25        -55.0800   -17.5720   -28.2120 hc         1 WAD       0.037200
     29 H26        -54.4610   -16.3580   -29.3240 hc         1 WAD       0.037200
     30 H30        -56.8190   -14.5170   -26.8620 hc         1 WAD       0.017700
     31 H29        -57.0870   -16.1680   -27.3880 hc         1 WAD       0.017700
     32 H34        -55.1100   -13.6650   -29.5270 hc         1 WAD       0.016700
     33 H33        -56.4030   -12.7120   -28.6330 hc         1 WAD       0.016700
     34 H32        -57.9580   -14.6070   -29.0450 hc         1 WAD       0.037200
     35 H31        -56.6520   -15.5330   -29.7570 hc         1 WAD       0.037200
     36 H14        -49.8410   -16.3760   -30.6570 hc         1 WAD       0.020700
     37 H15        -48.1050   -16.2040   -30.4290 hc         1 WAD       0.020700
     38 H22        -52.1350   -15.1780   -27.4700 hc         1 WAD       0.065200
     39 H21        -52.0020   -15.6410   -29.1670 hc         1 WAD       0.065200
     40 H16        -48.4780   -13.9790   -29.3080 hc         1 WAD       0.071700
     41 H17        -50.2090   -14.1430   -29.5330 hc         1 WAD       0.071700
     42 H20        -50.2600   -17.3460   -28.5720 hc         1 WAD       0.025700
     43 H19        -50.4310   -16.9570   -26.8770 hc         1 WAD       0.025700
     44 H18        -48.4010   -15.9630   -27.8620 h1         1 WAD       0.007700
     45 H35        -49.5400   -14.9720   -26.1230 ho         1 WAD       0.426000
     46 H3         -45.9760   -12.0120   -37.1420 hc         1 WAD       0.023700
     47 H1         -45.2090   -13.2030   -36.0710 hc         1 WAD       0.023700
     48 H2         -46.9620   -13.2690   -36.3730 hc         1 WAD       0.023700
     49 H24        -52.7260   -17.9830   -28.5660 hc         1 WAD       0.020700
     50 H23        -52.9520   -17.4740   -26.8970 hc         1 WAD       0.020700
     51 H27        -54.4180   -14.6620   -27.4790 hc         1 WAD       0.029200
     52 H28        -54.8800   -15.8920   -26.3170 hc         1 WAD       0.029200
     53 H4         -47.2630   -11.0800   -35.1900 hc         1 WAD       0.038200
     54 H5         -45.5240   -10.9300   -34.9850 hc         1 WAD       0.038200
     55 H7         -45.5040   -12.9400   -33.4870 hc         1 WAD       0.029200
     56 H6         -46.4760   -11.6100   -32.8680 hc         1 WAD       0.029200
@<TRIPOS>BOND
     1     1     2 1   
     2     1    20 1   
     3     1    22 1   
     4     1    23 1   
     5     2     3 1   
     6     2    24 1   
     7     2    25 1   
     8     3    10 1   
     9     3    26 1   
    10     3    27 1   
    11     4    17 1   
    12     4    18 1   
    13     4    28 1   
    14     4    29 1   
    15     5     9 1   
    16     5    18 1   
    17     5    30 1   
    18     5    31 1   
    19     6     7 1   
    20     6     9 1   
    21     6    32 1   
    22     6    33 1   
    23     7     8 1   
    24     7    21 1   
    25     9    34 1   
    26     9    35 1   
    27    10    12 1   
    28    10    36 1   
    29    10    37 1   
    30    11    13 1   
    31    11    17 1   
    32    11    38 1   
    33    11    39 1   
    34    12    14 1   
    35    12    40 1   
    36    12    41 1   
    37    13    14 1   
    38    13    42 1   
    39    13    43 1   
    40    14    15 1   
    41    14    44 1   
    42    15    45 1   
    43    16    19 1   
    44    16    46 1   
    45    16    47 1   
    46    16    48 1   
    47    17    49 1   
    48    17    50 1   
    49    18    51 1   
    50    18    52 1   
    51    19    20 1   
    52    19    53 1   
    53    19    54 1   
    54    20    55 1   
    55    20    56 1   
@<TRIPOS>SUBSTRUCTURE
     1 WAD         1 TEMP              0 ****  ****    0 ROOT
