@<TRIPOS>MOLECULE
WAD
   56    55     1     0     0
SMALL
abcg2


@<TRIPOS>ATOM
      1 C4         -48.7960   -13.4200   -33.2150 c3         1 WAD      -0.081400
      2 C5         -48.4860   -14.0500   -31.8610 c3         1 WAD      -0.062400
      3 C6         -49.3440   -15.2770   -31.5790 c3         1 WAD      -0.079400
      4 C13        -54.3330   -16.7480   -28.3360 c3         1 WAD      -0.073400
      5 C15        -55.8170   -14.6760   -28.6620 c3         1 WAD      -0.073400
      6 CA         -53.9350   -13.3320   -29.7680 c3         1 WAD      -0.206400
      7 C          -53.3440   -12.7350   -31.0590 c          1 WAD       0.714000
      8 O          -52.0960   -12.6640   -31.1240 o          1 WAD      -0.746000
      9 CB         -55.1840   -14.1820   -29.9650 c3         1 WAD      -0.058400
     10 CD1        -49.0700   -15.9640   -30.2440 c3         1 WAD      -0.061400
     11 CD2        -51.8570   -16.2900   -28.0390 c3         1 WAD      -0.085400
     12 CE1        -49.3080   -15.0580   -29.0410 c3         1 WAD      -0.085400
     13 CE2        -50.4960   -16.8200   -27.6110 c3         1 WAD      -0.101400
     14 CZ         -49.3650   -15.7920   -27.7060 c3         1 WAD       0.175300
     15 OH         -49.4940   -14.7920   -26.7060 oh         1 WAD      -0.657000
     16 C1         -47.9960   -12.3520   -36.0690 c3         1 WAD      -0.085100
     17 C12        -53.0210   -17.2200   -27.7100 c3         1 WAD      -0.068400
     18 C14        -54.8790   -15.4510   -27.7380 c3         1 WAD      -0.069400
     19 C2         -48.2630   -11.5030   -34.8320 c3         1 WAD      -0.073400
     20 C3         -47.9300   -12.2030   -33.5170 c3         1 WAD      -0.067400
     21 O2         -54.1500   -12.3390   -31.9250 o          1 WAD      -0.746000
     22 H9         -49.8520   -13.1280   -33.2370 hc         1 WAD       0.051700
     23 H8         -48.6700   -14.1750   -33.9970 hc         1 WAD       0.051700
     24 H10        -47.4270   -14.3270   -31.8180 hc         1 WAD       0.030700
     25 H11        -48.6370   -13.2990   -31.0800 hc         1 WAD       0.030700
     26 H13        -50.4000   -14.9850   -31.6120 hc         1 WAD       0.052200
     27 H12        -49.2050   -16.0020   -32.3880 hc         1 WAD       0.052200
     28 H25        -55.0910   -17.5310   -28.2430 hc         1 WAD       0.037200
     29 H26        -54.1640   -16.6270   -29.4110 hc         1 WAD       0.037200
     30 H30        -56.2050   -13.8120   -28.1130 hc         1 WAD       0.017700
     31 H29        -56.6870   -15.2960   -28.9030 hc         1 WAD       0.017700
     32 H34        -53.1580   -13.9080   -29.2600 hc         1 WAD       0.016700
     33 H33        -54.1770   -12.5010   -29.0920 hc         1 WAD       0.016700
     34 H32        -55.9300   -13.6030   -30.5140 hc         1 WAD       0.037200
     35 H31        -54.9420   -15.0340   -30.6080 hc         1 WAD       0.037200
     36 H14        -49.7150   -16.8450   -30.1860 hc         1 WAD       0.020700
     37 H15        -48.0420   -16.3420   -30.2230 hc         1 WAD       0.020700
     38 H22        -52.0240   -15.3130   -27.5790 hc         1 WAD       0.065200
     39 H21        -51.8540   -16.1150   -29.1200 hc         1 WAD       0.065200
     40 H16        -48.5100   -14.3130   -28.9800 hc         1 WAD       0.071700
     41 H17        -50.2350   -14.4930   -29.1870 hc         1 WAD       0.071700
     42 H20        -50.2370   -17.6980   -28.2100 hc         1 WAD       0.025700
     43 H19        -50.5440   -17.1830   -26.5770 hc         1 WAD       0.025700
     44 H18        -48.4150   -16.3330   -27.5720 h1         1 WAD       0.007700
     45 H35        -49.5320   -15.2300   -25.8500 ho         1 WAD       0.426000
     46 H3         -48.1820   -11.7870   -36.9840 hc         1 WAD       0.023700
     47 H1         -46.9580   -12.6900   -36.0960 hc         1 WAD       0.023700
     48 H2         -48.6300   -13.2380   -36.1010 hc         1 WAD       0.023700
     49 H24        -52.7920   -18.2250   -28.0780 hc         1 WAD       0.020700
     50 H23        -53.1300   -17.3090   -26.6240 hc         1 WAD       0.020700
     51 H27        -54.0560   -14.7950   -27.4440 hc         1 WAD       0.029200
     52 H28        -55.4070   -15.6860   -26.8080 hc         1 WAD       0.029200
     53 H4         -49.3120   -11.1920   -34.8210 hc         1 WAD       0.038200
     54 H5         -47.6760   -10.5830   -34.8990 hc         1 WAD       0.038200
     55 H7         -46.8760   -12.5020   -33.5250 hc         1 WAD       0.029200
     56 H6         -48.0340   -11.4860   -32.6970 hc         1 WAD       0.029200
@<TRIPOS>BOND
     1     1     2 1   
     2     1    20 1   
     3     1    22 1   
     4     1    23 1   
     5     2     3 1   
     6     2    24 1   
     7     2    25 1   
     8     3    10 1   
     9     3    26 1   
    10     3    27 1   
    11     4    17 1   
    12     4    18 1   
    13     4    28 1   
    14     4    29 1   
    15     5     9 1   
    16     5    18 1   
    17     5    30 1   
    18     5    31 1   
    19     6     7 1   
    20     6     9 1   
    21     6    32 1   
    22     6    33 1   
    23     7     8 1   
    24     7    21 1   
    25     9    34 1   
    26     9    35 1   
    27    10    12 1   
    28    10    36 1   
    29    10    37 1   
    30    11    13 1   
    31    11    17 1   
    32    11    38 1   
    33    11    39 1   
    34    12    14 1   
    35    12    40 1   
    36    12    41 1   
    37    13    14 1   
    38    13    42 1   
    39    13    43 1   
    40    14    15 1   
    41    14    44 1   
    42    15    45 1   
    43    16    19 1   
    44    16    46 1   
    45    16    47 1   
    46    16    48 1   
    47    17    49 1   
    48    17    50 1   
    49    18    51 1   
    50    18    52 1   
    51    19    20 1   
    52    19    53 1   
    53    19    54 1   
    54    20    55 1   
    55    20    56 1   
@<TRIPOS>SUBSTRUCTURE
     1 WAD         1 TEMP              0 ****  ****    0 ROOT
