@<TRIPOS>MOLECULE
WAE
   26    26     1     0     0
SMALL
abcg2


@<TRIPOS>ATOM
      1 C7          -3.0530    16.1160   -37.1880 c3         1 WAE      -0.355100
      2 C8           1.4780    13.7410   -36.0530 c3         1 WAE      -0.052300
      3 O1          -1.2290    14.5150   -38.1340 o          1 WAE      -0.548500
      4 C1          -2.0820    12.9230   -34.9040 ca         1 WAE      -0.063300
      5 C5           0.2790    12.9830   -35.5530 ca         1 WAE      -0.063300
      6 C6          -0.9620    13.6160   -35.3800 ca         1 WAE       0.264000
      7 C4           0.3790    11.6280   -35.2490 ca         1 WAE      -0.106500
      8 C3          -0.7260    10.9190   -34.7910 ca         1 WAE      -0.095000
      9 C2          -1.9420    11.5630   -34.6180 ca         1 WAE      -0.106500
     10 S           -1.3590    15.5970   -37.1820 s6         1 WAE       1.228100
     11 O           -0.5390    16.7800   -37.3320 o          1 WAE      -0.548500
     12 N           -1.0770    15.0190   -35.6630 nu         1 WAE      -0.945100
     13 H1          -3.1920    16.8520   -36.3990 h1         1 WAE       0.102700
     14 H2          -3.2410    16.5550   -38.1670 h1         1 WAE       0.102700
     15 H3          -3.6870    15.2490   -37.0310 h1         1 WAE       0.102700
     16 H4           1.3030    14.1420   -37.0530 hc         1 WAE       0.047533
     17 H5           1.7150    14.5900   -35.4060 hc         1 WAE       0.047533
     18 H6           2.3500    13.0900   -36.0930 hc         1 WAE       0.047533
     19 H7           1.3300    11.1260   -35.3760 ha         1 WAE       0.117000
     20 H8          -0.6340     9.8650   -34.5600 ha         1 WAE       0.117000
     21 H9          -2.7980    11.0150   -34.2440 ha         1 WAE       0.117000
     22 H10         -0.4480    15.6340   -35.1620 hn         1 WAE       0.499000
     23 H11         -4.0150    13.5600   -35.6020 hc         1 WAE       0.047533
     24 H12         -3.9710    13.0850   -33.9100 hc         1 WAE       0.047533
     25 H13         -3.2900    14.6420   -34.4190 hc         1 WAE       0.047533
     26 C           -3.4090    13.5950   -34.6930 c3         1 WAE      -0.052300
@<TRIPOS>BOND
     1     1    10 1   
     2     1    13 1   
     3     1    14 1   
     4     1    15 1   
     5     2     5 1   
     6     2    16 1   
     7     2    17 1   
     8     2    18 1   
     9     3    10 2   
    10     4     6 ar  
    11     4     9 ar  
    12     4    26 1   
    13     5     6 ar  
    14     5     7 ar  
    15     6    12 1   
    16     7     8 ar  
    17     7    19 1   
    18     8     9 ar  
    19     8    20 1   
    20     9    21 1   
    21    10    11 2   
    22    10    12 1   
    23    12    22 1   
    24    23    26 1   
    25    24    26 1   
    26    25    26 1   
@<TRIPOS>SUBSTRUCTURE
     1 WAE         1 TEMP              0 ****  ****    0 ROOT
