@<TRIPOS>MOLECULE
WAE
   26    26     1     0     0
SMALL
No Charge or Current Charge


@<TRIPOS>ATOM
      1 C7          -3.0400    15.4960   -37.3350 c3         1 WAE      -0.355100
      2 C8           1.5490    13.6100   -36.0840 c3         1 WAE      -0.052300
      3 O1          -0.5130    15.2330   -38.0690 o          1 WAE      -0.548500
      4 C1          -2.1010    13.1360   -34.8610 ca         1 WAE      -0.063300
      5 C5           0.2330    12.9910   -35.6100 ca         1 WAE      -0.063300
      6 C6          -0.9370    13.7680   -35.3810 ca         1 WAE       0.264000
      7 C4           0.1990    11.5990   -35.3950 ca         1 WAE      -0.106500
      8 C3          -0.9670    10.9760   -34.9320 ca         1 WAE      -0.095000
      9 C2          -2.1060    11.7430   -34.6560 ca         1 WAE      -0.106500
     10 S           -1.3290    15.8800   -37.0430 s6         1 WAE       1.228100
     11 O           -1.1920    17.3130   -36.7850 o          1 WAE      -0.548500
     12 N           -0.9160    15.1500   -35.6100 nu         1 WAE      -0.945100
     13 H1          -3.6180    15.9130   -36.5050 h1         1 WAE       0.102700
     14 H2          -3.3200    15.9640   -38.2840 h1         1 WAE       0.102700
     15 H3          -3.1300    14.4080   -37.3900 h1         1 WAE       0.102700
     16 H4           1.5320    13.8010   -37.1630 hc         1 WAE       0.047533
     17 H5           1.7680    14.5540   -35.5710 hc         1 WAE       0.047533
     18 H6           2.3980    12.9440   -35.8880 hc         1 WAE       0.047533
     19 H7           1.0840    10.9940   -35.5840 ha         1 WAE       0.117000
     20 H8          -0.9810     9.9000   -34.7670 ha         1 WAE       0.117000
     21 H9          -2.9960    11.2520   -34.2680 ha         1 WAE       0.117000
     22 H10         -0.0020    15.5600   -35.4810 hn         1 WAE       0.499000
     23 H11         -4.1280    13.8400   -35.2370 hc         1 WAE       0.047533
     24 H12         -3.7900    13.4980   -33.5390 hc         1 WAE       0.047533
     25 H13         -3.1590    14.9680   -34.2660 hc         1 WAE       0.047533
     26 C           -3.3580    13.9080   -34.4600 c3         1 WAE      -0.052300
@<TRIPOS>BOND
     1     1    10 1   
     2     1    13 1   
     3     1    14 1   
     4     1    15 1   
     5     2     5 1   
     6     2    16 1   
     7     2    17 1   
     8     2    18 1   
     9     3    10 2   
    10     4     6 ar  
    11     4     9 ar  
    12     4    26 1   
    13     5     6 ar  
    14     5     7 ar  
    15     6    12 1   
    16     7     8 ar  
    17     7    19 1   
    18     8     9 ar  
    19     8    20 1   
    20     9    21 1   
    21    10    11 2   
    22    10    12 1   
    23    12    22 1   
    24    23    26 1   
    25    24    26 1   
    26    25    26 1   
@<TRIPOS>SUBSTRUCTURE
     1 WAE         1 TEMP              0 ****  ****    0 ROOT
