@<TRIPOS>MOLECULE
WAF
   15    15     1     0     0
SMALL
No Charge or Current Charge


@<TRIPOS>ATOM
      1 C2          13.1850    25.6430     8.0040 cc         1 WAF      -0.272200
      2 C4          13.1940    25.8110    10.4070 cd         1 WAF      -0.246000
      3 C5          13.8420    27.0410    10.3110 cc         1 WAF      -0.088600
      4 O2          13.8900    27.2790    12.6630 o          1 WAF      -0.640000
      5 C1          13.8520    26.9060     7.8570 cs         1 WAF       0.365600
      6 N6          14.1680    27.5820     9.0430 n          1 WAF       0.056500
      7 O1          14.8370    28.8530     8.9670 oh         1 WAF      -0.536100
      8 C3          12.8550    25.0900     9.2190 cd         1 WAF      -0.136000
      9 C7          14.1870    27.7780    11.5860 c          1 WAF       0.727200
     10 O3          14.7580    28.8600    11.5090 o          1 WAF      -0.640000
     11 H2          12.9430    25.1250     7.0820 ha         1 WAF       0.198000
     12 H4          12.9390    25.3860    11.3770 ha         1 WAF       0.212000
     13 H1          14.9310    29.0930     9.9320 ho         1 WAF       0.543000
     14 H3          12.3480    24.1270     9.2740 ha         1 WAF       0.170000
     15 S           14.2110    27.4930     6.3160 s          1 WAF      -0.713400
@<TRIPOS>BOND
     1     1     5 1   
     2     1     8 2   
     3     1    11 1   
     4     2     3 2   
     5     2     8 1   
     6     2    12 1   
     7     3     6 1   
     8     3     9 1   
     9     4     9 1   
    10     5     6 1   
    11     5    15 2   
    12     6     7 1   
    13     7    13 1   
    14     8    14 1   
    15     9    10 1   
@<TRIPOS>SUBSTRUCTURE
     1 WAF         1 TEMP              0 ****  ****    0 ROOT
