@<TRIPOS>MOLECULE
WAF
   15    15     1     0     0
SMALL
abcg2


@<TRIPOS>ATOM
      1 C2          13.1970    25.6570     8.0060 cc         1 WAF      -0.272200
      2 C4          13.1930    25.8120    10.3900 cd         1 WAF      -0.246000
      3 C5          13.8250    27.0220    10.3000 cc         1 WAF      -0.088600
      4 O2          13.8700    27.3330    12.6340 o          1 WAF      -0.640000
      5 C1          13.8440    26.9080     7.8840 cs         1 WAF       0.365600
      6 N6          14.1300    27.5260     9.0700 n          1 WAF       0.056500
      7 O1          14.7510    28.7110     8.9880 oh         1 WAF      -0.536100
      8 C3          12.8770    25.1160     9.2200 cd         1 WAF      -0.136000
      9 C7          14.1980    27.8060    11.5560 c          1 WAF       0.727200
     10 O3          14.8270    28.8890    11.3580 o          1 WAF      -0.640000
     11 H2          12.9610    25.1380     7.0880 ha         1 WAF       0.198000
     12 H4          12.9550    25.4190    11.3660 ha         1 WAF       0.212000
     13 H1          14.8900    28.9700    10.0110 ho         1 WAF       0.543000
     14 H3          12.3810    24.1550     9.2750 ha         1 WAF       0.170000
     15 S           14.2410    27.6070     6.4000 s          1 WAF      -0.713400
@<TRIPOS>BOND
     1     1     5 1   
     2     1     8 2   
     3     1    11 1   
     4     2     3 2   
     5     2     8 1   
     6     2    12 1   
     7     3     6 1   
     8     3     9 1   
     9     4     9 1   
    10     5     6 1   
    11     5    15 2   
    12     6     7 1   
    13     7    13 1   
    14     8    14 1   
    15     9    10 1   
@<TRIPOS>SUBSTRUCTURE
     1 WAF         1 TEMP              0 ****  ****    0 ROOT
