@<TRIPOS>MOLECULE
WAH
   26    26     1     0     0
SMALL
No Charge or Current Charge


@<TRIPOS>ATOM
      1 C7           0.4600    13.5800   -35.4810 ca         1 WAH      -0.145500
      2 C8          -0.7950    13.8920   -34.9290 ca         1 WAH      -0.065500
      3 O1          -4.5220    12.7650   -36.5550 o          1 WAH      -0.546500
      4 C1          -3.6650    16.3390   -35.3690 c3         1 WAH       0.222800
      5 C5          -0.3170    11.3280   -35.9790 ca         1 WAH      -0.145500
      6 C6           0.6940    12.2990   -36.0050 ca         1 WAH       0.171000
      7 C4          -1.5730    11.6380   -35.4270 ca         1 WAH      -0.065500
      8 C3          -1.8190    12.9230   -34.9030 ca         1 WAH      -0.081300
      9 C2          -3.1820    13.2560   -34.2980 c3         1 WAH      -0.245100
     10 F            1.9000    12.0010   -36.5360 f          1 WAH      -0.182000
     11 S           -4.4510    13.7590   -35.4820 s6         1 WAH       1.206100
     12 O           -5.6640    14.1840   -34.7820 o          1 WAH      -0.546500
     13 N           -3.8110    15.1250   -36.1840 n7         1 WAH      -0.923300
     14 C           -3.0670    17.4610   -36.2300 c3         1 WAH      -0.097100
     15 H1           1.2490    14.3270   -35.5040 ha         1 WAH       0.135000
     16 H2          -0.9700    14.8850   -34.5230 ha         1 WAH       0.120500
     17 H3          -2.9980    16.1630   -34.5150 h1         1 WAH       0.047200
     18 H4          -4.6360    16.6710   -34.9730 h1         1 WAH       0.047200
     19 H5          -0.1280    10.3370   -36.3850 ha         1 WAH       0.135000
     20 H6          -2.3540    10.8820   -35.4090 ha         1 WAH       0.120500
     21 H7          -3.1000    14.0710   -33.5720 h1         1 WAH       0.101700
     22 H8          -3.5940    12.3790   -33.7870 h1         1 WAH       0.101700
     23 H9          -4.5140    15.2930   -36.9010 hn         1 WAH       0.500000
     24 H10         -2.9390    18.3700   -35.6310 hc         1 WAH       0.045367
     25 H11         -2.0850    17.1670   -36.6200 hc         1 WAH       0.045367
     26 H12         -3.7230    17.6980   -37.0760 hc         1 WAH       0.045367
@<TRIPOS>BOND
     1     1     2 ar  
     2     1     6 ar  
     3     1    15 1   
     4     2     8 ar  
     5     2    16 1   
     6     3    11 2   
     7     4    13 1   
     8     4    14 1   
     9     4    17 1   
    10     4    18 1   
    11     5     6 ar  
    12     5     7 ar  
    13     5    19 1   
    14     6    10 1   
    15     7     8 ar  
    16     7    20 1   
    17     8     9 1   
    18     9    11 1   
    19     9    21 1   
    20     9    22 1   
    21    11    12 2   
    22    11    13 1   
    23    13    23 1   
    24    14    24 1   
    25    14    25 1   
    26    14    26 1   
@<TRIPOS>SUBSTRUCTURE
     1 WAH         1 TEMP              0 ****  ****    0 ROOT
