@<TRIPOS>MOLECULE
WAH
   26    26     1     0     0
SMALL
abcg2


@<TRIPOS>ATOM
      1 C7           0.3620    13.6560   -35.6290 ca         1 WAH      -0.145500
      2 C8          -0.8520    13.9200   -35.0090 ca         1 WAH      -0.065500
      3 O1          -4.5590    12.7780   -36.4360 o          1 WAH      -0.546500
      4 C1          -3.8630    16.4020   -35.4230 c3         1 WAH       0.222800
      5 C5          -0.3580    11.3720   -36.0200 ca         1 WAH      -0.145500
      6 C6           0.5800    12.3830   -36.1230 ca         1 WAH       0.171000
      7 C4          -1.5660    11.6560   -35.3950 ca         1 WAH      -0.065500
      8 C3          -1.8260    12.9280   -34.8860 ca         1 WAH      -0.081300
      9 C2          -3.1360    13.2340   -34.2310 c3         1 WAH      -0.245100
     10 F            1.7640    12.1120   -36.7290 f          1 WAH      -0.182000
     11 S           -4.4150    13.7650   -35.3860 s6         1 WAH       1.206100
     12 O           -5.5770    14.0880   -34.5810 o          1 WAH      -0.546500
     13 N           -3.7810    15.0930   -36.0880 n7         1 WAH      -0.923300
     14 C           -2.9170    17.3800   -36.1000 c3         1 WAH      -0.097100
     15 H1           1.1250    14.4160   -35.7270 ha         1 WAH       0.135000
     16 H2          -1.0440    14.9110   -34.6170 ha         1 WAH       0.120500
     17 H3          -3.5770    16.2660   -34.3800 h1         1 WAH       0.047200
     18 H4          -4.8880    16.7800   -35.4380 h1         1 WAH       0.047200
     19 H5          -0.1430    10.3890   -36.4170 ha         1 WAH       0.135000
     20 H6          -2.3140    10.8790   -35.3040 ha         1 WAH       0.120500
     21 H7          -3.0550    14.0370   -33.4980 h1         1 WAH       0.101700
     22 H8          -3.5750    12.3630   -33.7450 h1         1 WAH       0.101700
     23 H9          -3.9400    15.0930   -37.0890 hn         1 WAH       0.500000
     24 H10         -2.9910    18.3580   -35.6210 hc         1 WAH       0.045367
     25 H11         -1.8850    17.0330   -36.0300 hc         1 WAH       0.045367
     26 H12         -3.1720    17.4990   -37.1550 hc         1 WAH       0.045367
@<TRIPOS>BOND
     1     1     2 ar  
     2     1     6 ar  
     3     1    15 1   
     4     2     8 ar  
     5     2    16 1   
     6     3    11 2   
     7     4    13 1   
     8     4    14 1   
     9     4    17 1   
    10     4    18 1   
    11     5     6 ar  
    12     5     7 ar  
    13     5    19 1   
    14     6    10 1   
    15     7     8 ar  
    16     7    20 1   
    17     8     9 1   
    18     9    11 1   
    19     9    21 1   
    20     9    22 1   
    21    11    12 2   
    22    11    13 1   
    23    13    23 1   
    24    14    24 1   
    25    14    25 1   
    26    14    26 1   
@<TRIPOS>SUBSTRUCTURE
     1 WAH         1 TEMP              0 ****  ****    0 ROOT
