@<TRIPOS>MOLECULE
WAI
   56    59     1     0     0
SMALL
bcc


@<TRIPOS>ATOM
      1 C1          -2.8480     0.0270    -1.1750 cp         1 WAI      -0.087500
      2 C2          -1.7300    -0.0290    -1.9880 ca         1 WAI      -0.270300
      3 C3          -1.8600     0.2440    -3.3640 ca         1 WAI       0.677200
      4 N4          -3.0520     0.5300    -3.8940 nb         1 WAI      -0.740000
      5 C5          -4.1130     0.5840    -3.1020 ca         1 WAI       0.446200
      6 C6          -4.0820     0.3490    -1.7420 ca         1 WAI      -0.288300
      7 C7          -2.7160    -0.2640     0.2720 cp         1 WAI       0.551800
      8 C8          -3.8150    -0.5850     1.0670 ca         1 WAI      -0.405600
      9 C9          -3.5510    -0.8380     2.3990 ca         1 WAI       0.475200
     10 N10         -2.3340    -0.7870     2.9230 nb         1 WAI      -0.754000
     11 C11         -1.3520    -0.4780     2.0830 ca         1 WAI       0.916900
     12 N12         -1.4960    -0.2160     0.7830 nb         1 WAI      -0.778000
     13 N13         -0.0670    -0.4020     2.5240 nu         1 WAI      -0.734300
     14 C14          0.4910    -0.5870     3.7820 ca         1 WAI       0.187600
     15 C15          1.8790    -0.4330     3.8670 ca         1 WAI      -0.186000
     16 C16          2.5230    -0.5940     5.0780 ca         1 WAI       0.059400
     17 C17          1.8510    -0.9130     6.2550 ca         1 WAI      -0.095300
     18 C18          0.4720    -1.0600     6.1410 ca         1 WAI      -0.096000
     19 C19         -0.2130    -0.9050     4.9440 ca         1 WAI      -0.151000
     20 C20          2.5560    -1.0870     7.5650 c3         1 WAI      -0.039800
     21 CL24         4.2480    -0.3870     5.1140 cl         1 WAI      -0.118400
     22 N34         -0.7850     0.2520    -4.2130 nh         1 WAI      -0.770300
     23 C35          0.5120    -0.2200    -3.7670 c6         1 WAI       0.214800
     24 C36          1.6270     0.3500    -4.6240 c6         1 WAI       0.156800
     25 N37          1.4070     0.0790    -6.0290 n3         1 WAI      -0.725600
     26 C38          0.1530     0.6820    -6.4320 c6         1 WAI       0.156800
     27 C39         -1.0020     0.1020    -5.6430 c6         1 WAI       0.214800
     28 C48          2.5180     0.5000    -6.8600 c3         1 WAI       0.166800
     29 C49          3.6980    -0.4610    -6.7890 c3         1 WAI       0.146800
     30 N52          4.7680     0.0030    -7.6600 n8         1 WAI      -0.888800
     31 H2          -0.7830    -0.2980    -1.5480 ha         1 WAI       0.159000
     32 H5          -5.0520     0.8310    -3.5850 h4         1 WAI       0.017100
     33 H6          -4.9890     0.4250    -1.1590 ha         1 WAI       0.143000
     34 H8          -4.8210    -0.6510     0.6820 ha         1 WAI       0.158000
     35 H9          -4.3560    -1.0960     3.0780 h4         1 WAI       0.025100
     36 H13          0.5870    -0.1710     1.7900 hn         1 WAI       0.455800
     37 H15          2.4510    -0.1850     2.9820 ha         1 WAI       0.144000
     38 H18         -0.0960    -1.3060     7.0290 ha         1 WAI       0.134000
     39 H19         -1.2820    -1.0310     4.9200 ha         1 WAI       0.171000
     40 H201         3.3170    -1.8660     7.5110 hc         1 WAI       0.047033
     41 H202         3.0580    -0.1700     7.8770 hc         1 WAI       0.047033
     42 H203         1.8500    -1.3620     8.3470 hc         1 WAI       0.047033
     43 H351         0.6970     0.1030    -2.7450 h1         1 WAI       0.054450
     44 H352         0.5560    -1.3170    -3.7830 h1         1 WAI       0.054450
     45 H361         2.5610    -0.1040    -4.2930 h1         1 WAI       0.041700
     46 H362         1.7100     1.4350    -4.4340 h1         1 WAI       0.041700
     47 H381        -0.0200     0.4790    -7.4910 h1         1 WAI       0.041700
     48 H382         0.1650     1.7790    -6.3090 h1         1 WAI       0.041700
     49 H391        -1.1200    -0.9600    -5.8980 h1         1 WAI       0.054450
     50 H392        -1.9200     0.6100    -5.9240 h1         1 WAI       0.054450
     51 H481         2.1670     0.5340    -7.8960 h1         1 WAI       0.040200
     52 H482         2.8610     1.5180    -6.6130 h1         1 WAI       0.040200
     53 H491         4.0910    -0.5000    -5.7700 h1         1 WAI       0.035200
     54 H492         3.3360    -1.4710    -7.0230 h1         1 WAI       0.035200
     55 H521         5.5750    -0.5960    -7.5490 hn         1 WAI       0.338300
     56 H522         4.4830    -0.1030    -8.6270 hn         1 WAI       0.338300
@<TRIPOS>BOND
     1     1     2 ar  
     2     1     6 ar  
     3     1     7 1   
     4     2     3 ar  
     5     2    31 1   
     6     3     4 ar  
     7     3    22 1   
     8     4     5 ar  
     9     5     6 ar  
    10     5    32 1   
    11     6    33 1   
    12     7     8 ar  
    13     7    12 ar  
    14     8     9 ar  
    15     8    34 1   
    16     9    10 ar  
    17     9    35 1   
    18    10    11 ar  
    19    11    12 ar  
    20    11    13 1   
    21    13    14 1   
    22    13    36 1   
    23    14    15 ar  
    24    14    19 ar  
    25    15    16 ar  
    26    15    37 1   
    27    16    17 ar  
    28    16    21 1   
    29    17    18 ar  
    30    17    20 1   
    31    18    19 ar  
    32    18    38 1   
    33    19    39 1   
    34    20    40 1   
    35    20    41 1   
    36    20    42 1   
    37    22    23 1   
    38    22    27 1   
    39    23    24 1   
    40    23    43 1   
    41    23    44 1   
    42    24    25 1   
    43    24    45 1   
    44    24    46 1   
    45    25    26 1   
    46    25    28 1   
    47    26    27 1   
    48    26    47 1   
    49    26    48 1   
    50    27    49 1   
    51    27    50 1   
    52    28    29 1   
    53    28    51 1   
    54    28    52 1   
    55    29    30 1   
    56    29    53 1   
    57    29    54 1   
    58    30    55 1   
    59    30    56 1   
@<TRIPOS>SUBSTRUCTURE
     1 WAI         1 TEMP              0 ****  ****    0 ROOT
