@<TRIPOS>MOLECULE
WAI
   56    59     1     0     0
SMALL
No Charge or Current Charge


@<TRIPOS>ATOM
      1 C1          -2.8710     0.0460    -1.1130 cp         1 WAI      -0.087500
      2 C2          -1.7570    -0.0080    -1.9910 ca         1 WAI      -0.187000
      3 C3          -1.9040     0.2810    -3.3630 ca         1 WAI       0.611900
      4 N4          -3.0830     0.6210    -3.9090 nb         1 WAI      -0.740000
      5 C5          -4.1570     0.6830    -3.0970 ca         1 WAI       0.380900
      6 C6          -4.0980     0.4110    -1.7210 ca         1 WAI      -0.205000
      7 C7          -2.7510    -0.2590     0.3580 cp         1 WAI       0.223500
      8 C8          -3.8700    -0.4920     1.1970 ca         1 WAI      -0.257000
      9 C9          -3.6400    -0.7690     2.5540 ca         1 WAI       0.146900
     10 N10         -2.3940    -0.8130     3.0580 nb         1 WAI      -0.228000
     11 C11         -1.3900    -0.5740     2.1960 ca         1 WAI       0.390900
     12 N12         -1.5100    -0.3170     0.8840 nb         1 WAI      -0.252000
     13 N13         -0.0810    -0.6440     2.6560 nu         1 WAI      -0.927900
     14 C14          0.5130    -0.7700     3.9160 ca         1 WAI       0.326000
     15 C15          1.7970    -1.3290     3.9950 ca         1 WAI      -0.168000
     16 C16          2.4410    -1.4680     5.2340 ca         1 WAI       0.151000
     17 C17          1.8100    -1.0360     6.4210 ca         1 WAI      -0.095300
     18 C18          0.5280    -0.4590     6.3400 ca         1 WAI      -0.078000
     19 C19         -0.1120    -0.3250     5.0950 ca         1 WAI      -0.133000
     20 C20          2.4950    -1.1770     7.7760 c3         1 WAI      -0.039800
     21 Cl24         4.0500    -2.1890     5.2730 cl         1 WAI      -0.210000
     22 N34         -0.8290     0.2500    -4.2750 nh         1 WAI      -0.770300
     23 C35          0.5900     0.2400    -3.7970 c6         1 WAI       0.214800
     24 C36          1.6060     0.7230    -4.8830 c6         1 WAI       0.156800
     25 N37          1.4670    -0.0080    -6.1820 n3         1 WAI      -0.725600
     26 C38          0.0580     0.1140    -6.6650 c6         1 WAI       0.156800
     27 C39         -0.9940    -0.3880    -5.6240 c6         1 WAI       0.214800
     28 C48          2.4520     0.4150    -7.2160 c3         1 WAI       0.166800
     29 C49          3.9460     0.1450    -6.8620 c3         1 WAI       0.146800
     30 N52          4.8810     0.4760    -7.9680 n8         1 WAI      -0.999200
     31 H2          -0.7830    -0.2930    -1.6090 ha         1 WAI       0.141000
     32 H5          -5.1000     0.9660    -3.5630 h4         1 WAI       0.017100
     33 H6          -5.0110     0.4990    -1.1420 ha         1 WAI       0.125000
     34 H8          -4.8850    -0.4750     0.8170 ha         1 WAI       0.140000
     35 H9          -4.4610    -0.9620     3.2430 h4         1 WAI       0.025100
     36 H13          0.5880    -0.6790     1.8870 hn         1 WAI       0.511000
     37 H15          2.2990    -1.6680     3.0940 ha         1 WAI       0.126000
     38 H18          0.0270    -0.1090     7.2390 ha         1 WAI       0.116000
     39 H19         -1.0890     0.1460     5.0560 ha         1 WAI       0.153000
     40 H201         2.7190    -2.2280     7.9970 hc         1 WAI       0.047033
     41 H202         3.4380    -0.6190     7.8000 hc         1 WAI       0.047033
     42 H203         1.8680    -0.7980     8.5910 hc         1 WAI       0.047033
     43 H351         0.7030     0.8960    -2.9210 h1         1 WAI       0.054450
     44 H352         0.8690    -0.7770    -3.4840 h1         1 WAI       0.054450
     45 H361         2.6180     0.5990    -4.4730 h1         1 WAI       0.041700
     46 H362         1.4560     1.8010    -5.0420 h1         1 WAI       0.041700
     47 H381        -0.0770    -0.4590    -7.5940 h1         1 WAI       0.041700
     48 H382        -0.1670     1.1640    -6.9050 h1         1 WAI       0.041700
     49 H391        -0.8970    -1.4790    -5.5280 h1         1 WAI       0.054450
     50 H392        -1.9920    -0.1920    -6.0430 h1         1 WAI       0.054450
     51 H481         2.2340    -0.1170    -8.1520 h1         1 WAI       0.040200
     52 H482         2.3330     1.4880    -7.4250 h1         1 WAI       0.040200
     53 H491         4.2310     0.7410    -5.9850 h1         1 WAI       0.035200
     54 H492         4.0690    -0.9170    -6.6090 h1         1 WAI       0.035200
     55 H521         5.8360     0.2210    -7.6860 hn         1 WAI       0.393500
     56 H522         4.6930    -0.1470    -8.7630 hn         1 WAI       0.393500
@<TRIPOS>BOND
     1     1     2 ar  
     2     1     6 ar  
     3     1     7 1   
     4     2     3 ar  
     5     2    31 1   
     6     3     4 ar  
     7     3    22 1   
     8     4     5 ar  
     9     5     6 ar  
    10     5    32 1   
    11     6    33 1   
    12     7     8 ar  
    13     7    12 ar  
    14     8     9 ar  
    15     8    34 1   
    16     9    10 ar  
    17     9    35 1   
    18    10    11 ar  
    19    11    12 ar  
    20    11    13 1   
    21    13    14 1   
    22    13    36 1   
    23    14    15 ar  
    24    14    19 ar  
    25    15    16 ar  
    26    15    37 1   
    27    16    17 ar  
    28    16    21 1   
    29    17    18 ar  
    30    17    20 1   
    31    18    19 ar  
    32    18    38 1   
    33    19    39 1   
    34    20    40 1   
    35    20    41 1   
    36    20    42 1   
    37    22    23 1   
    38    22    27 1   
    39    23    24 1   
    40    23    43 1   
    41    23    44 1   
    42    24    25 1   
    43    24    45 1   
    44    24    46 1   
    45    25    26 1   
    46    25    28 1   
    47    26    27 1   
    48    26    47 1   
    49    26    48 1   
    50    27    49 1   
    51    27    50 1   
    52    28    29 1   
    53    28    51 1   
    54    28    52 1   
    55    29    30 1   
    56    29    53 1   
    57    29    54 1   
    58    30    55 1   
    59    30    56 1   
@<TRIPOS>SUBSTRUCTURE
     1 WAI         1 TEMP              0 ****  ****    0 ROOT
