@<TRIPOS>MOLECULE
WAK
   49    54     1     0     0
SMALL
abcg2


@<TRIPOS>ATOM
      1 O           47.1670    -1.7830    38.7670 o          1 WAK      -0.507000
      2 C           46.9930    -1.7980    37.5600 c          1 WAK       0.542200
      3 C12         46.0440    -2.5950    36.7170 cc         1 WAK       0.033400
      4 C13         45.1740    -3.4830    37.2500 cf         1 WAK      -0.095200
      5 C14         44.2080    -4.3170    36.5630 ca         1 WAK      -0.047800
      6 C20         44.0530    -4.3140    35.1690 ca         1 WAK      -0.040000
      7 C19         43.1020    -5.1500    34.6040 ca         1 WAK      -0.181000
      8 S           42.6950    -5.3590    32.9240 ss         1 WAK       0.000800
      9 C18         41.5000    -6.5390    33.3980 cc         1 WAK       0.392100
     10 N3          41.3920    -6.7730    34.6660 nd         1 WAK      -0.524100
     11 C17         42.2880    -6.0010    35.3850 ca         1 WAK       0.091400
     12 C16         42.4440    -6.0020    36.7750 ca         1 WAK      -0.063000
     13 C15         43.3890    -5.1730    37.3420 ca         1 WAK      -0.099000
     14 N2          46.2320    -2.2560    35.3850 nc         1 WAK      -0.703300
     15 C1          47.1830    -1.3490    35.3600 cd         1 WAK       0.699800
     16 N           47.6700    -1.0400    36.6270 ns         1 WAK      -0.485400
     17 N1          47.6830    -0.7430    34.2850 nu         1 WAK      -0.901400
     18 C2          47.2650    -0.9610    32.8880 c6         1 WAK       0.271200
     19 C11         45.7800    -0.6070    32.6870 c6         1 WAK      -0.083067
     20 C6          45.4010    -0.7860    31.2100 c6         1 WAK      -0.056367
     21 C5          45.6450    -2.2440    30.7940 c6         1 WAK      -0.071733
     22 C10         48.1200    -0.0280    32.0170 c6         1 WAK      -0.083067
     23 C8          47.7430    -0.1990    30.5390 c6         1 WAK      -0.056367
     24 C7          46.2600     0.1470    30.3450 c6         1 WAK      -0.071733
     25 C9          47.9870    -1.6540    30.1130 c6         1 WAK      -0.071733
     26 C4          47.1310    -2.5890    30.9780 c6         1 WAK      -0.056367
     27 C3          47.5160    -2.4170    32.4540 c6         1 WAK      -0.083067
     28 H1          45.2070    -3.5800    38.3290 ha         1 WAK       0.193000
     29 H2          44.6700    -3.6690    34.5610 ha         1 WAK       0.158000
     30 H3          40.9000    -7.0270    32.6410 h5         1 WAK       0.057800
     31 H4          41.8280    -6.6490    37.3860 ha         1 WAK       0.132000
     32 H5          43.5160    -5.1680    38.4170 ha         1 WAK       0.117000
     33 H6          48.4010    -0.3770    36.8400 hn         1 WAK       0.342500
     34 H7          48.4160    -0.0690    34.4410 hn         1 WAK       0.493000
     35 H8          45.6160     0.4270    33.0020 hc         1 WAK       0.054367
     36 H9          45.1650    -1.2500    33.3170 hc         1 WAK       0.054367
     37 H10         44.3440    -0.5380    31.0830 hc         1 WAK       0.055367
     38 H11         45.3550    -2.3880    29.7490 hc         1 WAK       0.044367
     39 H12         45.0270    -2.9140    31.3990 hc         1 WAK       0.044367
     40 H13         49.1780    -0.2630    32.1670 hc         1 WAK       0.054367
     41 H14         47.9590     1.0070    32.3310 hc         1 WAK       0.054367
     42 H15         48.3620     0.4720    29.9370 hc         1 WAK       0.055367
     43 H16         46.0790     1.1890    30.6250 hc         1 WAK       0.044367
     44 H17         45.9880     0.0400    29.2910 hc         1 WAK       0.044367
     45 H18         47.7300    -1.7790    29.0570 hc         1 WAK       0.044367
     46 H19         49.0460    -1.9060    30.2240 hc         1 WAK       0.044367
     47 H20         47.3070    -3.6270    30.6840 hc         1 WAK       0.055367
     48 H21         46.9300    -3.0890    33.0810 hc         1 WAK       0.054367
     49 H22         48.5730    -2.6550    32.6030 hc         1 WAK       0.054367
@<TRIPOS>BOND
     1     1     2 2   
     2     2     3 1   
     3     2    16 1   
     4     3     4 2   
     5     3    14 1   
     6     4     5 1   
     7     4    28 1   
     8     5     6 ar  
     9     5    13 ar  
    10     6     7 ar  
    11     6    29 1   
    12     7     8 1   
    13     7    11 ar  
    14     8     9 1   
    15     9    10 2   
    16     9    30 1   
    17    10    11 1   
    18    11    12 ar  
    19    12    13 ar  
    20    12    31 1   
    21    13    32 1   
    22    14    15 2   
    23    15    16 1   
    24    15    17 1   
    25    16    33 1   
    26    17    18 1   
    27    17    34 1   
    28    18    19 1   
    29    18    22 1   
    30    18    27 1   
    31    19    20 1   
    32    19    35 1   
    33    19    36 1   
    34    20    21 1   
    35    20    24 1   
    36    20    37 1   
    37    21    26 1   
    38    21    38 1   
    39    21    39 1   
    40    22    23 1   
    41    22    40 1   
    42    22    41 1   
    43    23    24 1   
    44    23    25 1   
    45    23    42 1   
    46    24    43 1   
    47    24    44 1   
    48    25    26 1   
    49    25    45 1   
    50    25    46 1   
    51    26    27 1   
    52    26    47 1   
    53    27    48 1   
    54    27    49 1   
@<TRIPOS>SUBSTRUCTURE
     1 WAK         1 TEMP              0 ****  ****    0 ROOT
