@<TRIPOS>MOLECULE
WAK
   49    54     1     0     0
SMALL
No Charge or Current Charge


@<TRIPOS>ATOM
      1 O           47.1810    -1.7620    38.7640 o          1 WAK      -0.507000
      2 C           47.0030    -1.7820    37.5550 c          1 WAK       0.542200
      3 C12         46.0710    -2.5660    36.7070 cc         1 WAK       0.033400
      4 C13         45.1720    -3.4840    37.1890 cf         1 WAK      -0.095200
      5 C14         44.1580    -4.3750    36.5740 ca         1 WAK      -0.047800
      6 C20         43.9290    -4.4200    35.1780 ca         1 WAK      -0.040000
      7 C19         42.9520    -5.2900    34.6700 ca         1 WAK      -0.181000
      8 S           42.5340    -5.4790    32.9760 ss         1 WAK       0.000800
      9 C18         41.3510    -6.6780    33.5440 cc         1 WAK       0.392100
     10 N3          41.2670    -6.9210    34.8620 nd         1 WAK      -0.524100
     11 C17         42.2020    -6.1070    35.4890 ca         1 WAK       0.091400
     12 C16         42.4110    -6.0790    36.8750 ca         1 WAK      -0.063000
     13 C15         43.3860    -5.2150    37.4130 ca         1 WAK      -0.099000
     14 N2          46.2270    -2.2520    35.3670 nc         1 WAK      -0.703300
     15 C1          47.1820    -1.3440    35.3940 cd         1 WAK       0.699800
     16 N           47.6390    -1.0590    36.6190 ns         1 WAK      -0.485400
     17 N1          47.6890    -0.7260    34.3050 nu         1 WAK      -0.901400
     18 C2          47.2900    -0.9330    32.8970 c6         1 WAK       0.271200
     19 C11         45.7910    -0.5570    32.6560 c6         1 WAK      -0.083067
     20 C6          45.4330    -0.7200    31.1500 c6         1 WAK      -0.056367
     21 C5          45.6860    -2.1940    30.7150 c6         1 WAK      -0.071733
     22 C10         48.1740     0.0180    32.0280 c6         1 WAK      -0.083067
     23 C8          47.8230    -0.1310    30.5180 c6         1 WAK      -0.056367
     24 C7          46.3260     0.2300    30.3010 c6         1 WAK      -0.071733
     25 C9          48.0720    -1.6000    30.0750 c6         1 WAK      -0.071733
     26 C4          47.1860    -2.5570    30.9230 c6         1 WAK      -0.056367
     27 C3          47.5510    -2.4020    32.4280 c6         1 WAK      -0.083067
     28 H1          45.2200    -3.5720    38.2750 ha         1 WAK       0.193000
     29 H2          44.4910    -3.7990    34.4890 ha         1 WAK       0.158000
     30 H3          40.7350    -7.1740    32.8030 h5         1 WAK       0.057800
     31 H4          41.8240    -6.7200    37.5290 ha         1 WAK       0.132000
     32 H5          43.5400    -5.2010    38.4900 ha         1 WAK       0.117000
     33 H6          48.3620    -0.3970    36.8440 hn         1 WAK       0.342500
     34 H7          48.4200    -0.0540    34.5110 hn         1 WAK       0.493000
     35 H8          45.6020     0.4760    32.9790 hc         1 WAK       0.054367
     36 H9          45.1230    -1.1920    33.2500 hc         1 WAK       0.054367
     37 H10         44.3750    -0.4660    30.9940 hc         1 WAK       0.055367
     38 H11         45.4070    -2.3300    29.6610 hc         1 WAK       0.044367
     39 H12         45.0470    -2.8750    31.2940 hc         1 WAK       0.044367
     40 H13         49.2390    -0.2050    32.1810 hc         1 WAK       0.054367
     41 H14         48.0300     1.0630    32.3380 hc         1 WAK       0.054367
     42 H15         48.4540     0.5450    29.9240 hc         1 WAK       0.055367
     43 H16         46.1420     1.2760    30.5820 hc         1 WAK       0.044367
     44 H17         46.0660     0.1450    29.2370 hc         1 WAK       0.044367
     45 H18         47.8440    -1.7180    29.0070 hc         1 WAK       0.044367
     46 H19         49.1330    -1.8590    30.1950 hc         1 WAK       0.044367
     47 H20         47.3610    -3.5950    30.6070 hc         1 WAK       0.055367
     48 H21         46.9580    -3.1160    33.0120 hc         1 WAK       0.054367
     49 H22         48.6040    -2.6710    32.5910 hc         1 WAK       0.054367
@<TRIPOS>BOND
     1     1     2 2   
     2     2     3 1   
     3     2    16 1   
     4     3     4 2   
     5     3    14 1   
     6     4     5 1   
     7     4    28 1   
     8     5     6 ar  
     9     5    13 ar  
    10     6     7 ar  
    11     6    29 1   
    12     7     8 1   
    13     7    11 ar  
    14     8     9 1   
    15     9    10 2   
    16     9    30 1   
    17    10    11 1   
    18    11    12 ar  
    19    12    13 ar  
    20    12    31 1   
    21    13    32 1   
    22    14    15 2   
    23    15    16 1   
    24    15    17 1   
    25    16    33 1   
    26    17    18 1   
    27    17    34 1   
    28    18    19 1   
    29    18    22 1   
    30    18    27 1   
    31    19    20 1   
    32    19    35 1   
    33    19    36 1   
    34    20    21 1   
    35    20    24 1   
    36    20    37 1   
    37    21    26 1   
    38    21    38 1   
    39    21    39 1   
    40    22    23 1   
    41    22    40 1   
    42    22    41 1   
    43    23    24 1   
    44    23    25 1   
    45    23    42 1   
    46    24    43 1   
    47    24    44 1   
    48    25    26 1   
    49    25    45 1   
    50    25    46 1   
    51    26    27 1   
    52    26    47 1   
    53    27    48 1   
    54    27    49 1   
@<TRIPOS>SUBSTRUCTURE
     1 WAK         1 TEMP              0 ****  ****    0 ROOT
