@<TRIPOS>MOLECULE
WAL
   49    52     1     0     0
SMALL
abcg2


@<TRIPOS>ATOM
      1 C18         10.5610    15.7920    16.3520 c3         1 WAL      -0.087700
      2 N4           9.9160    17.4650    14.5860 na         1 WAL       0.020200
      3 C14         11.0210    22.4160    10.9610 ca         1 WAL       0.394900
      4 C12          8.8100    22.3670    10.5470 ca         1 WAL       0.152900
      5 C17         13.4330    22.7300    11.2870 cc         1 WAL       0.238000
      6 C11          8.6580    21.2630    11.3700 ca         1 WAL      -0.258000
      7 C10          9.8150    20.7820    11.9720 ca         1 WAL       0.218500
      8 C22         12.7600    13.3030    14.2930 c3         1 WAL      -0.088100
      9 C7           9.6690    16.3260    15.2960 cc         1 WAL       0.327800
     10 C5           8.8630    17.5800    13.7100 cc         1 WAL      -0.118000
     11 C6           8.8140    18.6810    12.8280 cc         1 WAL      -0.046000
     12 C1           9.8120    19.6100    12.8710 cd         1 WAL      -0.134500
     13 C19         11.8530    15.1450    15.8200 c3         1 WAL      -0.057700
     14 C20         11.5380    13.9280    14.9510 c3         1 WAL      -0.075400
     15 C21         12.7520    14.7930    17.0010 c3         1 WAL      -0.090100
     16 C2          10.8910    19.4410    13.7990 cd         1 WAL      -0.112000
     17 C3          10.9270    18.3880    14.6400 cc         1 WAL      -0.103000
     18 C25         15.1980    22.2270    12.4810 cd         1 WAL       0.249900
     19 C26         13.7970    22.2570    12.5320 cd         1 WAL      -0.229000
     20 N13          9.9740    22.9510    10.3290 nb         1 WAL      -0.236000
     21 N15         10.9910    21.3700    11.7740 nb         1 WAL      -0.225000
     22 N23         14.5750    22.9360    10.5950 na         1 WAL       0.102800
     23 N24         15.6590    22.6470    11.3200 nc         1 WAL      -0.518800
     24 N8           8.5480    15.8070    14.8650 nd         1 WAL      -0.357700
     25 N9           8.0390    16.5700    13.8820 nd         1 WAL      -0.087000
     26 H182         9.9960    15.0520    16.9240 hc         1 WAL       0.066700
     27 H181        10.8150    16.5960    17.0510 hc         1 WAL       0.066700
     28 H121         7.9500    22.8000    10.0470 h4         1 WAL       0.028100
     29 H111         7.6830    20.8330    11.5390 ha         1 WAL       0.142000
     30 H221        12.4660    12.5020    13.6130 hc         1 WAL       0.032367
     31 H223        13.3150    14.0410    13.7110 hc         1 WAL       0.032367
     32 H222        13.4460    12.8710    15.0210 hc         1 WAL       0.032367
     33 H61          7.9850    18.7390    12.1360 ha         1 WAL       0.148000
     34 H191        12.3800    15.8790    15.1980 hc         1 WAL       0.042700
     35 H202        10.8310    14.2140    14.1670 hc         1 WAL       0.048200
     36 H201        11.0240    13.1800    15.5640 hc         1 WAL       0.048200
     37 H212        12.9580    15.6710    17.6150 hc         1 WAL       0.036033
     38 H213        12.2770    14.0440    17.6390 hc         1 WAL       0.036033
     39 H211        13.7110    14.3920    16.6750 hc         1 WAL       0.036033
     40 H21         11.6880    20.1670    13.8420 ha         1 WAL       0.154000
     41 H31         11.7090    18.2250    15.3660 h4         1 WAL       0.152000
     42 H251        15.8810    21.9140    13.2570 h4         1 WAL       0.037100
     43 H261        13.1540    21.9840    13.3480 ha         1 WAL       0.153000
     44 H273        15.7290    23.3090     8.9340 h1         1 WAL       0.057700
     45 H272        14.0420    22.9200     8.5740 h1         1 WAL       0.057700
     46 H271        14.4690    24.5190     9.2120 h1         1 WAL       0.057700
     47 N16         12.2130    23.0260    10.7110 nu         1 WAL      -0.928900
     48 C27         14.7030    23.4550     9.2550 c3         1 WAL       0.064900
     49 H161        12.1600    23.8170    10.0850 hn         1 WAL       0.519000
@<TRIPOS>BOND
     1     1     9 1   
     2     1    13 1   
     3     1    26 1   
     4     1    27 1   
     5     2     9 1   
     6     2    10 1   
     7     2    17 1   
     8     3    20 ar  
     9     3    21 ar  
    10     3    47 1   
    11     4     6 ar  
    12     4    20 ar  
    13     4    28 1   
    14     5    19 2   
    15     5    22 1   
    16     5    47 1   
    17     6     7 ar  
    18     6    29 1   
    19     7    12 1   
    20     7    21 ar  
    21     8    14 1   
    22     8    30 1   
    23     8    31 1   
    24     8    32 1   
    25     9    24 2   
    26    10    11 1   
    27    10    25 2   
    28    11    12 2   
    29    11    33 1   
    30    12    16 1   
    31    13    14 1   
    32    13    15 1   
    33    13    34 1   
    34    14    35 1   
    35    14    36 1   
    36    15    37 1   
    37    15    38 1   
    38    15    39 1   
    39    16    17 2   
    40    16    40 1   
    41    17    41 1   
    42    18    19 1   
    43    18    23 2   
    44    18    42 1   
    45    19    43 1   
    46    22    23 1   
    47    22    48 1   
    48    24    25 1   
    49    44    48 1   
    50    45    48 1   
    51    46    48 1   
    52    47    49 1   
@<TRIPOS>SUBSTRUCTURE
     1 WAL         1 TEMP              0 ****  ****    0 ROOT
