@<TRIPOS>MOLECULE
WAL
   49    52     1     0     0
SMALL
No Charge or Current Charge


@<TRIPOS>ATOM
      1 C18         10.7760    15.8510    16.5300 c3         1 WAL      -0.087700
      2 N4           9.9590    17.4790    14.6980 na         1 WAL       0.020200
      3 C14         11.0220    22.3600    10.7790 ca         1 WAL       0.394900
      4 C12          8.8790    22.0120    10.0790 ca         1 WAL       0.152900
      5 C17         13.4310    23.0180    11.2410 cc         1 WAL       0.238000
      6 C11          8.7590    20.9520    10.9930 ca         1 WAL      -0.258000
      7 C10          9.8740    20.6390    11.8030 ca         1 WAL       0.218500
      8 C22         12.2040    12.8640    14.3270 c3         1 WAL      -0.088100
      9 C7           9.7680    16.4510    15.5790 cc         1 WAL       0.327800
     10 C5           8.8160    17.7320    14.0290 cc         1 WAL      -0.118000
     11 C6           8.7500    18.7670    13.0590 cc         1 WAL      -0.046000
     12 C1           9.8740    19.5400    12.8090 cd         1 WAL      -0.134500
     13 C19         11.8490    14.9560    15.8490 c3         1 WAL      -0.057700
     14 C20         11.2120    13.7290    15.1350 c3         1 WAL      -0.075400
     15 C21         12.9360    14.5450    16.8730 c3         1 WAL      -0.090100
     16 C2          11.0650    19.2240    13.5960 cd         1 WAL      -0.112000
     17 C3          11.1380    18.2110    14.5530 cc         1 WAL      -0.103000
     18 C25         15.1600    22.8110    12.6350 cd         1 WAL       0.249900
     19 C26         13.7690    22.6340    12.5000 cd         1 WAL      -0.229000
     20 N13         10.0170    22.7210     9.9680 nb         1 WAL      -0.236000
     21 N15         11.0100    21.3620    11.6810 nb         1 WAL      -0.225000
     22 N23         14.6450    23.4440    10.6870 na         1 WAL       0.102800
     23 N24         15.7240    23.3040    11.5470 nc         1 WAL      -0.518800
     24 N8           8.5010    16.0750    15.4330 nd         1 WAL      -0.357700
     25 N9           7.9060    16.8770    14.4570 nd         1 WAL      -0.087000
     26 H182        10.2480    15.2600    17.2890 hc         1 WAL       0.066700
     27 H181        11.2700    16.6630    17.0750 hc         1 WAL       0.066700
     28 H121         8.0550    22.2960     9.4270 h4         1 WAL       0.028100
     29 H111         7.8250    20.4060    11.0450 ha         1 WAL       0.142000
     30 H221        11.6630    12.0920    13.7670 hc         1 WAL       0.032367
     31 H223        12.7610    13.4780    13.6100 hc         1 WAL       0.032367
     32 H222        12.9190    12.3590    14.9860 hc         1 WAL       0.032367
     33 H61          7.8050    18.9170    12.5500 ha         1 WAL       0.148000
     34 H191        12.3460    15.5620    15.0810 hc         1 WAL       0.042700
     35 H202        10.4380    14.0770    14.4400 hc         1 WAL       0.048200
     36 H201        10.7060    13.0960    15.8740 hc         1 WAL       0.048200
     37 H212        13.3450    15.4280    17.3800 hc         1 WAL       0.036033
     38 H213        12.5210    13.8750    17.6360 hc         1 WAL       0.036033
     39 H211        13.7730    14.0350    16.3820 hc         1 WAL       0.036033
     40 H21         11.9700    19.8050    13.4440 ha         1 WAL       0.154000
     41 H31         12.0030    17.9600    15.1540 h4         1 WAL       0.152000
     42 H251        15.7740    22.6050    13.5030 h4         1 WAL       0.037100
     43 H261        13.0960    22.2710    13.2650 ha         1 WAL       0.153000
     44 H273        15.9230    24.0770     9.1240 h1         1 WAL       0.057700
     45 H272        14.3980    23.3120     8.5980 h1         1 WAL       0.057700
     46 H271        14.3830    24.9750     9.2620 h1         1 WAL       0.057700
     47 N16         12.1880    23.1020    10.6390 nu         1 WAL      -0.928900
     48 C27         14.8510    23.9860     9.3350 c3         1 WAL       0.064900
     49 H161        12.1550    23.7320     9.8360 hn         1 WAL       0.519000
@<TRIPOS>BOND
     1     1     9 1   
     2     1    13 1   
     3     1    26 1   
     4     1    27 1   
     5     2     9 1   
     6     2    10 1   
     7     2    17 1   
     8     3    20 ar  
     9     3    21 ar  
    10     3    47 1   
    11     4     6 ar  
    12     4    20 ar  
    13     4    28 1   
    14     5    19 2   
    15     5    22 1   
    16     5    47 1   
    17     6     7 ar  
    18     6    29 1   
    19     7    12 1   
    20     7    21 ar  
    21     8    14 1   
    22     8    30 1   
    23     8    31 1   
    24     8    32 1   
    25     9    24 2   
    26    10    11 1   
    27    10    25 2   
    28    11    12 2   
    29    11    33 1   
    30    12    16 1   
    31    13    14 1   
    32    13    15 1   
    33    13    34 1   
    34    14    35 1   
    35    14    36 1   
    36    15    37 1   
    37    15    38 1   
    38    15    39 1   
    39    16    17 2   
    40    16    40 1   
    41    17    41 1   
    42    18    19 1   
    43    18    23 2   
    44    18    42 1   
    45    19    43 1   
    46    22    23 1   
    47    22    48 1   
    48    24    25 1   
    49    44    48 1   
    50    45    48 1   
    51    46    48 1   
    52    47    49 1   
@<TRIPOS>SUBSTRUCTURE
     1 WAL         1 TEMP              0 ****  ****    0 ROOT
