@<TRIPOS>MOLECULE
WAM
   44    46     1     0     0
SMALL
No Charge or Current Charge


@<TRIPOS>ATOM
      1 C1          24.8390    21.3450    33.7690 c3         1 WAM       0.013900
      2 C2          24.8220    19.9860    31.6860 ca         1 WAM       0.159900
      3 C3          24.1310    18.9640    31.0210 ca         1 WAM      -0.174000
      4 N1          24.1350    20.8130    32.5790 na         1 WAM       0.027300
      5 C8A         22.7360    20.8900    32.4910 ca         1 WAM      -0.026000
      6 C4A         22.0090    19.8880    31.7880 ca         1 WAM      -0.060000
      7 C4          22.7190    18.8630    31.0910 ca         1 WAM      -0.003600
      8 C8          22.0430    21.9570    33.1090 ca         1 WAM      -0.145000
      9 C5          20.5940    19.9810    31.7510 ca         1 WAM      -0.043000
     10 C7          20.6440    22.0260    33.0640 ca         1 WAM      -0.026000
     11 C6          19.9210    21.0350    32.3900 ca         1 WAM      -0.091000
     12 C19         22.0330    17.6970    30.3880 c          1 WAM       0.602700
     13 O19         21.0200    17.1560    30.8030 o          1 WAM      -0.547100
     14 N19         22.6320    17.1800    29.2900 nt         1 WAM      -0.591000
     15 C10         27.1950    19.0520    31.6090 ce         1 WAM       0.031800
     16 C11         28.6840    19.1210    31.5150 ca         1 WAM      -0.148800
     17 C12         29.3470    20.2970    31.0980 ca         1 WAM      -0.111000
     18 C16         29.4460    17.9800    31.8430 ca         1 WAM      -0.037000
     19 C13         30.7590    20.3320    31.0170 ca         1 WAM       0.041100
     20 C15         30.8480    18.0130    31.7640 ca         1 WAM      -0.143000
     21 C14         31.5010    19.1830    31.3540 ca         1 WAM       0.192100
     22 O14         32.8630    19.2100    31.2790 oh         1 WAM      -0.504100
     23 O13         31.4540    21.4620    30.6140 os         1 WAM      -0.358100
     24 CM13        30.7900    22.6870    30.2490 c3         1 WAM       0.154900
     25 HM12        24.1740    21.3260    34.6410 h1         1 WAM       0.086700
     26 HM11        25.7180    20.7320    34.0030 h1         1 WAM       0.086700
     27 HM13        25.1580    22.3760    33.5760 h1         1 WAM       0.086700
     28 H3          24.7060    18.2450    30.4440 ha         1 WAM       0.161000
     29 H8          22.5810    22.7470    33.6300 ha         1 WAM       0.139000
     30 H5          19.9860    19.2690    31.2040 ha         1 WAM       0.156000
     31 H9          26.6610    21.0910    31.4850 ha         1 WAM       0.207000
     32 H7          20.1210    22.8500    33.5470 ha         1 WAM       0.147000
     33 H6          18.8360    21.0930    32.3460 ha         1 WAM       0.152000
     34 H192        22.2070    16.3920    28.8240 hn         1 WAM       0.334500
     35 H191        23.4600    17.6130    28.9090 hn         1 WAM       0.334500
     36 H10         26.8080    18.0400    31.7410 ha         1 WAM       0.182000
     37 H12         28.7640    21.1720    30.8300 ha         1 WAM       0.116000
     38 H16         28.9530    17.0640    32.1640 ha         1 WAM       0.125000
     39 H15         31.4290    17.1300    32.0200 ha         1 WAM       0.153000
     40 H14         33.1040    20.1130    30.9730 ho         1 WAM       0.500000
     41 H132        31.5260    23.4490    29.9650 h1         1 WAM       0.049033
     42 H133        30.1190    22.5290    29.3950 h1         1 WAM       0.049033
     43 H131        30.2030    23.0790    31.0900 h1         1 WAM       0.049033
     44 C9          26.2880    20.0700    31.5700 cf         1 WAM      -0.327200
@<TRIPOS>BOND
     1     1     4 1   
     2     1    25 1   
     3     1    26 1   
     4     1    27 1   
     5     2     3 ar  
     6     2     4 2   
     7     2    44 1   
     8     3     7 ar  
     9     3    28 1   
    10     4     5 1   
    11     5     6 ar  
    12     5     8 ar  
    13     6     7 ar  
    14     6     9 ar  
    15     7    12 1   
    16     8    10 ar  
    17     8    29 1   
    18     9    11 ar  
    19     9    30 1   
    20    10    11 ar  
    21    10    32 1   
    22    11    33 1   
    23    12    13 2   
    24    12    14 1   
    25    14    34 1   
    26    14    35 1   
    27    15    16 1   
    28    15    36 1   
    29    15    44 2   
    30    16    17 ar  
    31    16    18 ar  
    32    17    19 ar  
    33    17    37 1   
    34    18    20 ar  
    35    18    38 1   
    36    19    21 ar  
    37    19    23 1   
    38    20    21 ar  
    39    20    39 1   
    40    21    22 1   
    41    22    40 1   
    42    23    24 1   
    43    24    41 1   
    44    24    42 1   
    45    24    43 1   
    46    31    44 1   
@<TRIPOS>SUBSTRUCTURE
     1 WAM         1 TEMP              0 ****  ****    0 ROOT
