@<TRIPOS>MOLECULE
WAM
   44    46     1     0     0
SMALL
abcg2


@<TRIPOS>ATOM
      1 C1          24.8260    21.9910    33.1360 c3         1 WAM       0.013900
      2 C2          24.8890    19.9740    31.7780 ca         1 WAM       0.159900
      3 C3          24.2270    18.8650    31.2100 ca         1 WAM      -0.174000
      4 N1          24.1600    20.9120    32.3990 na         1 WAM       0.027300
      5 C8A         22.7760    20.8850    32.3990 ca         1 WAM      -0.026000
      6 C4A         22.0970    19.7700    31.8580 ca         1 WAM      -0.060000
      7 C4          22.8750    18.7380    31.2700 ca         1 WAM      -0.003600
      8 C8          22.0380    21.9580    32.9230 ca         1 WAM      -0.145000
      9 C5          20.6880    19.7520    31.8770 ca         1 WAM      -0.043000
     10 C7          20.6660    21.9080    32.9220 ca         1 WAM      -0.026000
     11 C6          19.9830    20.8010    32.4040 ca         1 WAM      -0.091000
     12 C19         22.2320    17.4800    30.7470 c          1 WAM       0.602700
     13 O19         21.5740    16.7810    31.4960 o          1 WAM      -0.547100
     14 N19         22.4770    17.2170    29.4620 nt         1 WAM      -0.591000
     15 C10         27.1550    19.0660    31.5650 ce         1 WAM       0.031800
     16 C11         28.5910    19.1090    31.4150 ca         1 WAM      -0.148800
     17 C12         29.3100    20.3100    31.2810 ca         1 WAM      -0.111000
     18 C16         29.2900    17.9020    31.4060 ca         1 WAM      -0.037000
     19 C13         30.6790    20.2940    31.1410 ca         1 WAM       0.041100
     20 C15         30.6680    17.8790    31.2690 ca         1 WAM      -0.143000
     21 C14         31.3750    19.0630    31.1370 ca         1 WAM       0.192100
     22 O14         32.7040    19.0210    31.0040 oh         1 WAM      -0.504100
     23 O13         31.4680    21.3740    31.0000 os         1 WAM      -0.358100
     24 CM13        30.8700    22.6560    30.9630 c3         1 WAM       0.154900
     25 HM12        24.3110    22.1540    34.0770 h1         1 WAM       0.086700
     26 HM11        25.8420    21.7040    33.3730 h1         1 WAM       0.086700
     27 HM13        24.8310    22.9100    32.5520 h1         1 WAM       0.086700
     28 H3          24.8230    18.1190    30.7040 ha         1 WAM       0.161000
     29 H8          22.5230    22.8400    33.3100 ha         1 WAM       0.139000
     30 H5          20.1580    18.9050    31.4690 ha         1 WAM       0.156000
     31 H9          26.7130    21.1290    31.6220 ha         1 WAM       0.207000
     32 H7          20.1100    22.7460    33.3220 ha         1 WAM       0.147000
     33 H6          18.9020    20.7790    32.4120 ha         1 WAM       0.152000
     34 H192        22.1010    16.3840    29.0360 hn         1 WAM       0.334500
     35 H191        22.9700    17.8610    28.8660 hn         1 WAM       0.334500
     36 H10         26.7450    18.0640    31.6430 ha         1 WAM       0.182000
     37 H12         28.7840    21.2560    31.2850 ha         1 WAM       0.116000
     38 H16         28.7510    16.9690    31.5070 ha         1 WAM       0.125000
     39 H15         31.2050    16.9390    31.2630 ha         1 WAM       0.153000
     40 H14         33.0660    19.9120    30.9110 ho         1 WAM       0.500000
     41 H132        31.6780    23.3690    30.8230 h1         1 WAM       0.049033
     42 H133        30.1670    22.7470    30.1310 h1         1 WAM       0.049033
     43 H131        30.3500    22.8850    31.8960 h1         1 WAM       0.049033
     44 C9          26.3190    20.1220    31.6540 cf         1 WAM      -0.327200
@<TRIPOS>BOND
     1     1     4 1   
     2     1    25 1   
     3     1    26 1   
     4     1    27 1   
     5     2     3 ar  
     6     2     4 2   
     7     2    44 1   
     8     3     7 ar  
     9     3    28 1   
    10     4     5 1   
    11     5     6 ar  
    12     5     8 ar  
    13     6     7 ar  
    14     6     9 ar  
    15     7    12 1   
    16     8    10 ar  
    17     8    29 1   
    18     9    11 ar  
    19     9    30 1   
    20    10    11 ar  
    21    10    32 1   
    22    11    33 1   
    23    12    13 2   
    24    12    14 1   
    25    14    34 1   
    26    14    35 1   
    27    15    16 1   
    28    15    36 1   
    29    15    44 2   
    30    16    17 ar  
    31    16    18 ar  
    32    17    19 ar  
    33    17    37 1   
    34    18    20 ar  
    35    18    38 1   
    36    19    21 ar  
    37    19    23 1   
    38    20    21 ar  
    39    20    39 1   
    40    21    22 1   
    41    22    40 1   
    42    23    24 1   
    43    24    41 1   
    44    24    42 1   
    45    24    43 1   
    46    31    44 1   
@<TRIPOS>SUBSTRUCTURE
     1 WAM         1 TEMP              0 ****  ****    0 ROOT
