@<TRIPOS>MOLECULE
WAN
   45    47     1     0     0
SMALL
No Charge or Current Charge


@<TRIPOS>ATOM
      1 C26         42.1460    10.8900    49.3470 c3         1 WAN      -0.089100
      2 C25         43.0180    12.1180    49.6680 c3         1 WAN      -0.073400
      3 C24         42.2330    13.4480    49.6260 c3         1 WAN      -0.099700
      4 C23         43.0900    14.6480    49.9360 cc         1 WAN       0.281300
      5 C18         43.9090    15.2910    48.9820 cc         1 WAN       0.077400
      6 N17         44.1050    15.0050    47.6450 nc         1 WAN      -0.577100
      7 N22         43.1600    15.2060    51.1340 nd         1 WAN      -0.488800
      8 N20         44.0620    16.2510    50.9350 na         1 WAN       0.154800
      9 C21         44.4340    17.1490    52.0390 c3         1 WAN       0.076900
     10 C19         44.5250    16.3090    49.6180 cd         1 WAN      -0.253600
     11 C15         45.4590    17.2020    48.9400 c          1 WAN       0.601600
     12 O16         46.0490    18.1390    49.4530 o          1 WAN      -0.554000
     13 N14         45.5990    16.8590    47.6340 ns         1 WAN      -0.416400
     14 C13         44.9610    15.8170    47.0120 cd         1 WAN       0.553500
     15 C12         45.2090    15.5660    45.6070 cd         1 WAN      -0.250900
     16 C6          44.5840    14.4990    44.8870 cd         1 WAN       0.105000
     17 C5          44.9550    14.4420    43.5600 cc         1 WAN      -0.507500
     18 S2          44.4110    13.2460    42.3940 sy         1 WAN       1.209600
     19 O3          44.0340    12.0120    43.0810 o          1 WAN      -0.534500
     20 O4          45.2640    13.2940    41.2110 o          1 WAN      -0.534500
     21 N1          43.0200    13.9480    41.9360 n8         1 WAN      -0.997100
     22 S7          46.1220    15.6910    43.1390 ss         1 WAN       0.229000
     23 C8          46.0550    16.2920    44.7930 cc         1 WAN       0.098100
     24 O9          46.7620    17.3610    45.2850 os         1 WAN      -0.343100
     25 C10         47.6480    18.0940    44.4260 c3         1 WAN       0.164600
     26 C11         48.2790    19.2130    45.2670 c3         1 WAN      -0.100100
     27 H26         41.7160    10.9710    48.3410 hc         1 WAN       0.033700
     28 H26A        42.7460     9.9730    49.3900 hc         1 WAN       0.033700
     29 H26B        41.3250    10.7960    50.0680 hc         1 WAN       0.033700
     30 H25         43.4620    11.9920    50.6640 hc         1 WAN       0.046200
     31 H25A        43.8480    12.1640    48.9520 hc         1 WAN       0.046200
     32 H24         41.7820    13.5700    48.6330 hc         1 WAN       0.057700
     33 H24A        41.4000    13.3980    50.3380 hc         1 WAN       0.057700
     34 H21         43.9080    16.8560    52.9550 h1         1 WAN       0.066700
     35 H21A        45.5160    17.0890    52.2070 h1         1 WAN       0.066700
     36 H21B        44.1630    18.1780    51.7780 h1         1 WAN       0.066700
     37 HN14        46.2300    17.4280    47.0900 hn         1 WAN       0.345500
     38 H6          43.8840    13.7960    45.3350 ha         1 WAN       0.181000
     39 HN1         43.1550    14.8870    42.2990 hn         1 WAN       0.475000
     40 HN1A        43.1830    14.0420    40.9370 hn         1 WAN       0.475000
     41 H10         48.4380    17.4420    44.0310 h1         1 WAN       0.052200
     42 H10A        47.0990    18.5340    43.5820 h1         1 WAN       0.052200
     43 H11         48.9680    19.8060    44.6540 hc         1 WAN       0.060700
     44 H11A        47.5060    19.8830    45.6610 hc         1 WAN       0.060700
     45 H11B        48.8420    18.7930    46.1090 hc         1 WAN       0.060700
@<TRIPOS>BOND
     1     1     2 1   
     2     1    27 1   
     3     1    28 1   
     4     1    29 1   
     5     2     3 1   
     6     2    30 1   
     7     2    31 1   
     8     3     4 1   
     9     3    32 1   
    10     3    33 1   
    11     4     5 1   
    12     4     7 2   
    13     5     6 1   
    14     5    10 2   
    15     6    14 2   
    16     7     8 1   
    17     8     9 1   
    18     8    10 1   
    19     9    34 1   
    20     9    35 1   
    21     9    36 1   
    22    10    11 1   
    23    11    12 2   
    24    11    13 1   
    25    13    14 1   
    26    13    37 1   
    27    14    15 1   
    28    15    16 1   
    29    15    23 2   
    30    16    17 2   
    31    16    38 1   
    32    17    18 1   
    33    17    22 1   
    34    18    19 2   
    35    18    20 2   
    36    18    21 1   
    37    21    39 1   
    38    21    40 1   
    39    22    23 1   
    40    23    24 1   
    41    24    25 1   
    42    25    26 1   
    43    25    41 1   
    44    25    42 1   
    45    26    43 1   
    46    26    44 1   
    47    26    45 1   
@<TRIPOS>SUBSTRUCTURE
     1 WAN         1 TEMP              0 ****  ****    0 ROOT
