@<TRIPOS>MOLECULE
WAN
   45    47     1     0     0
SMALL
abcg2


@<TRIPOS>ATOM
      1 C26         42.1640    10.8920    49.3980 c3         1 WAN      -0.089100
      2 C25         43.0410    12.1110    49.6670 c3         1 WAN      -0.073400
      3 C24         42.2240    13.4090    49.7510 c3         1 WAN      -0.099700
      4 C23         43.0720    14.6180    49.9490 cc         1 WAN       0.281300
      5 C18         43.8840    15.2820    48.9930 cc         1 WAN       0.077400
      6 N17         44.0800    15.0210    47.6690 nc         1 WAN      -0.577100
      7 N22         43.2010    15.2230    51.1290 nd         1 WAN      -0.488800
      8 N20         44.0650    16.2480    50.9770 na         1 WAN       0.154800
      9 C21         44.3550    17.1310    52.0920 c3         1 WAN       0.076900
     10 C19         44.4970    16.3230    49.6950 cd         1 WAN      -0.253600
     11 C15         45.4030    17.2200    49.0330 c          1 WAN       0.601600
     12 O16         46.0130    18.1770    49.5050 o          1 WAN      -0.554000
     13 N14         45.5350    16.8700    47.6920 ns         1 WAN      -0.416400
     14 C13         44.9040    15.8220    47.0540 cd         1 WAN       0.553500
     15 C12         45.1840    15.6040    45.6360 cd         1 WAN      -0.250900
     16 C6          44.5720    14.5490    44.9030 cd         1 WAN       0.105000
     17 C5          44.9840    14.4820    43.6080 cc         1 WAN      -0.507500
     18 S2          44.4230    13.3470    42.4080 sy         1 WAN       1.209600
     19 O3          43.7230    12.3030    43.1130 o          1 WAN      -0.534500
     20 O4          45.5410    13.0320    41.5530 o          1 WAN      -0.534500
     21 N1          43.3180    14.0850    41.4500 n8         1 WAN      -0.997100
     22 S7          46.1440    15.7160    43.2100 ss         1 WAN       0.229000
     23 C8          46.0570    16.3280    44.8360 cc         1 WAN       0.098100
     24 O9          46.7660    17.3720    45.2520 os         1 WAN      -0.343100
     25 C10         47.7050    18.0080    44.3420 c3         1 WAN       0.164600
     26 C11         48.3640    19.1410    45.0840 c3         1 WAN      -0.100100
     27 H26         41.6270    11.0010    48.4520 hc         1 WAN       0.033700
     28 H26A        42.7620     9.9800    49.3420 hc         1 WAN       0.033700
     29 H26B        41.4220    10.7600    50.1890 hc         1 WAN       0.033700
     30 H25         43.5920    11.9780    50.6030 hc         1 WAN       0.046200
     31 H25A        43.7890    12.2110    48.8760 hc         1 WAN       0.046200
     32 H24         41.6510    13.5260    48.8260 hc         1 WAN       0.057700
     33 H24A        41.5050    13.3400    50.5710 hc         1 WAN       0.057700
     34 H21         44.5710    16.5300    52.9740 h1         1 WAN       0.066700
     35 H21A        45.2190    17.7350    51.8330 h1         1 WAN       0.066700
     36 H21B        43.5020    17.7800    52.2930 h1         1 WAN       0.066700
     37 HN14        46.1640    17.4500    47.1490 hn         1 WAN       0.345500
     38 H6          43.8580    13.8680    45.3360 ha         1 WAN       0.181000
     39 HN1         42.4920    14.3850    41.9590 hn         1 WAN       0.475000
     40 HN1A        43.7160    14.8370    40.8970 hn         1 WAN       0.475000
     41 H10         48.4270    17.2530    44.0250 h1         1 WAN       0.052200
     42 H10A        47.1420    18.3620    43.4740 h1         1 WAN       0.052200
     43 H11         49.0790    19.6320    44.4220 hc         1 WAN       0.060700
     44 H11A        47.6260    19.8770    45.4030 hc         1 WAN       0.060700
     45 H11B        48.9000    18.7700    45.9580 hc         1 WAN       0.060700
@<TRIPOS>BOND
     1     1     2 1   
     2     1    27 1   
     3     1    28 1   
     4     1    29 1   
     5     2     3 1   
     6     2    30 1   
     7     2    31 1   
     8     3     4 1   
     9     3    32 1   
    10     3    33 1   
    11     4     5 1   
    12     4     7 2   
    13     5     6 1   
    14     5    10 2   
    15     6    14 2   
    16     7     8 1   
    17     8     9 1   
    18     8    10 1   
    19     9    34 1   
    20     9    35 1   
    21     9    36 1   
    22    10    11 1   
    23    11    12 2   
    24    11    13 1   
    25    13    14 1   
    26    13    37 1   
    27    14    15 1   
    28    15    16 1   
    29    15    23 2   
    30    16    17 2   
    31    16    38 1   
    32    17    18 1   
    33    17    22 1   
    34    18    19 2   
    35    18    20 2   
    36    18    21 1   
    37    21    39 1   
    38    21    40 1   
    39    22    23 1   
    40    23    24 1   
    41    24    25 1   
    42    25    26 1   
    43    25    41 1   
    44    25    42 1   
    45    26    43 1   
    46    26    44 1   
    47    26    45 1   
@<TRIPOS>SUBSTRUCTURE
     1 WAN         1 TEMP              0 ****  ****    0 ROOT
