@<TRIPOS>MOLECULE
WAO
   25    26     1     0     0
SMALL
No Charge or Current Charge


@<TRIPOS>ATOM
      1 N1          -1.9790    17.4180   -36.5920 n2         1 WAO      -0.485300
      2 C7           0.8040    12.5820   -34.9340 ca         1 WAO       0.177000
      3 C8          -0.5320    12.1690   -35.1020 ca         1 WAO       0.079000
      4 N2          -2.5470    16.1930   -36.2380 n          1 WAO      -0.175800
      5 C9          -1.5640    13.1230   -35.0980 ca         1 WAO      -0.073000
      6 C1          -2.3700    17.5660   -37.8380 cc         1 WAO       0.368800
      7 C5           0.0720    14.8970   -34.7630 ca         1 WAO      -0.065000
      8 C6           1.1050    13.9430   -34.7650 ca         1 WAO      -0.140000
      9 C4          -1.2680    14.4910   -34.9270 ca         1 WAO      -0.110300
     10 C3          -2.3860    15.5280   -34.9320 c3         1 WAO       0.191300
     11 C2          -3.2780    15.6140   -37.2730 c          1 WAO       0.558000
     12 Cl          -0.9290    10.4640   -35.3190 cl         1 WAO      -0.176000
     13 O           -3.8910    14.5550   -37.2820 o          1 WAO      -0.553000
     14 N           -3.1450    16.5180   -38.2820 n          1 WAO      -0.336300
     15 C           -3.7440    16.3630   -39.6160 c3         1 WAO       0.116300
     16 H1          -2.5940    12.7980   -35.2330 ha         1 WAO       0.131000
     17 H2          -2.1300    18.4080   -38.4760 h5         1 WAO       0.072800
     18 H3           0.3110    15.9510   -34.6380 ha         1 WAO       0.126000
     19 H4           2.1380    14.2570   -34.6390 ha         1 WAO       0.136000
     20 H5          -2.1740    16.2930   -34.1740 h1         1 WAO       0.078700
     21 H6          -3.3350    15.0530   -34.6530 h1         1 WAO       0.078700
     22 H7          -4.8350    16.2930   -39.5260 h1         1 WAO       0.054033
     23 H8          -3.4900    17.2260   -40.2450 h1         1 WAO       0.054033
     24 H9          -3.3610    15.4500   -40.0890 h1         1 WAO       0.054033
     25 F            1.8070    11.6750   -34.9360 f          1 WAO      -0.164000
@<TRIPOS>BOND
     1     1     4 1   
     2     1     6 2   
     3     2     3 ar  
     4     2     8 ar  
     5     2    25 1   
     6     3     5 ar  
     7     3    12 1   
     8     4    10 1   
     9     4    11 1   
    10     5     9 ar  
    11     5    16 1   
    12     6    14 1   
    13     6    17 1   
    14     7     8 ar  
    15     7     9 ar  
    16     7    18 1   
    17     8    19 1   
    18     9    10 1   
    19    10    20 1   
    20    10    21 1   
    21    11    13 2   
    22    11    14 1   
    23    14    15 1   
    24    15    22 1   
    25    15    23 1   
    26    15    24 1   
@<TRIPOS>SUBSTRUCTURE
     1 WAO         1 TEMP              0 ****  ****    0 ROOT
