@<TRIPOS>MOLECULE
WAO
   25    26     1     0     0
SMALL
abcg2


@<TRIPOS>ATOM
      1 N1          -2.3930    17.2490   -36.1490 n2         1 WAO      -0.485300
      2 C7           0.7970    12.6370   -34.8910 ca         1 WAO       0.177000
      3 C8          -0.3430    12.2700   -34.1860 ca         1 WAO       0.079000
      4 N2          -2.8070    15.9370   -36.2500 n          1 WAO      -0.175800
      5 C9          -1.4850    13.0510   -34.2800 ca         1 WAO      -0.073000
      6 C1          -2.5070    17.7170   -37.3550 cc         1 WAO       0.368800
      7 C5          -0.3370    14.5510   -35.7650 ca         1 WAO      -0.065000
      8 C6           0.8100    13.7710   -35.6790 ca         1 WAO      -0.140000
      9 C4          -1.4900    14.1990   -35.0700 ca         1 WAO      -0.110300
     10 C3          -2.7520    15.0370   -35.1250 c3         1 WAO       0.191300
     11 C2          -3.1550    15.5970   -37.5290 c          1 WAO       0.558000
     12 CL          -0.3300    10.8330   -33.2060 cl         1 WAO      -0.176000
     13 O           -3.5450    14.5150   -37.9610 o          1 WAO      -0.553000
     14 N           -2.9610    16.7760   -38.2330 n          1 WAO      -0.336300
     15 C           -3.2050    16.9260   -39.6560 c3         1 WAO       0.116300
     16 H1          -2.3730    12.7550   -33.7370 ha         1 WAO       0.131000
     17 H2          -2.2730    18.7290   -37.6430 h5         1 WAO       0.072800
     18 H3          -0.3230    15.4360   -36.3860 ha         1 WAO       0.126000
     19 H4           1.7120    14.0310   -36.2170 ha         1 WAO       0.136000
     20 H5          -2.8420    15.6470   -34.2260 h1         1 WAO       0.078700
     21 H6          -3.6250    14.3850   -35.1700 h1         1 WAO       0.078700
     22 H7          -4.2500    16.7160   -39.8820 h1         1 WAO       0.054033
     23 H8          -2.9720    17.9490   -39.9410 h1         1 WAO       0.054033
     24 H9          -2.5710    16.2400   -40.2180 h1         1 WAO       0.054033
     25 F            1.9060    11.8740   -34.8120 f          1 WAO      -0.164000
@<TRIPOS>BOND
     1     1     4 1   
     2     1     6 2   
     3     2     3 ar  
     4     2     8 ar  
     5     2    25 1   
     6     3     5 ar  
     7     3    12 1   
     8     4    10 1   
     9     4    11 1   
    10     5     9 ar  
    11     5    16 1   
    12     6    14 1   
    13     6    17 1   
    14     7     8 ar  
    15     7     9 ar  
    16     7    18 1   
    17     8    19 1   
    18     9    10 1   
    19    10    20 1   
    20    10    21 1   
    21    11    13 2   
    22    11    14 1   
    23    14    15 1   
    24    15    22 1   
    25    15    23 1   
    26    15    24 1   
@<TRIPOS>SUBSTRUCTURE
     1 WAO         1 TEMP              0 ****  ****    0 ROOT
