@<TRIPOS>MOLECULE
WAP
   42    46     1     0     0
SMALL
abcg2


@<TRIPOS>ATOM
      1 N1          43.8130    -4.3550    37.9110 n1         1 WAP      -0.473000
      2 C2          43.3950    -4.8960    36.9780 cg         1 WAP       0.338700
      3 C3          42.8990    -5.5440    35.8380 cc         1 WAP      -0.252300
      4 C4          43.4300    -5.4500    34.5360 cd         1 WAP       0.515500
      5 N5          44.4650    -4.7800    34.0410 nd         1 WAP      -0.770000
      6 C6          44.6910    -4.9240    32.7330 cc         1 WAP       0.700900
      7 N7          45.7390    -4.2620    32.1530 nu         1 WAP      -0.931900
      8 C8          46.6750    -3.3720    32.6830 ca         1 WAP       0.326000
      9 C9          47.7060    -2.9520    31.8290 ca         1 WAP      -0.174000
     10 C10         48.6670    -2.0610    32.2720 ca         1 WAP      -0.062000
     11 C11         48.6390    -1.5670    33.5730 ca         1 WAP      -0.147000
     12 C12         47.6070    -1.9760    34.4070 ca         1 WAP       0.039800
     13 N13         47.5380    -1.4780    35.7390 na         1 WAP      -0.293800
     14 C14         47.8680    -0.2290    36.1830 cc         1 WAP       0.388400
     15 N15         47.6640    -0.1320    37.4700 nd         1 WAP      -0.355500
     16 N16         47.1860    -1.3570    37.9040 nd         1 WAP      -0.355500
     17 C17         47.1160    -2.1390    36.8590 cc         1 WAP       0.388400
     18 C18         46.6230    -2.8620    33.9830 ca         1 WAP      -0.141000
     19 C19         43.8970    -5.7400    31.8920 cc         1 WAP      -0.385000
     20 C20         42.8180    -6.4170    32.4250 cd         1 WAP       0.445000
     21 N21         41.9540    -7.2020    31.7700 nu         1 WAP      -0.929200
     22 C22         42.0880    -7.5160    30.3800 cx         1 WAP       0.149500
     23 C23         41.7410    -6.4590    29.3660 cx         1 WAP      -0.126400
     24 C24         40.8300    -7.6390    29.5770 cx         1 WAP      -0.126400
     25 N25         42.6120    -6.2520    33.7730 na         1 WAP       0.027900
     26 N26         41.6050    -6.8430    34.4890 nd         1 WAP      -0.610100
     27 C27         41.7870    -6.4130    35.7240 cc         1 WAP       0.464500
     28 H1          45.8680    -4.4620    31.1730 hn         1 WAP       0.500000
     29 H2          47.7450    -3.3330    30.8150 ha         1 WAP       0.114000
     30 H3          49.4590    -1.7540    31.6010 ha         1 WAP       0.122000
     31 H4          49.4080    -0.8960    33.9290 ha         1 WAP       0.131000
     32 H5          48.2250     0.5540    35.5350 h5         1 WAP       0.069600
     33 H6          46.7900    -3.1660    36.8550 h5         1 WAP       0.069600
     34 H7          45.8210    -3.1430    34.6410 ha         1 WAP       0.171000
     35 H8          44.1180    -5.8270    30.8400 ha         1 WAP       0.141000
     36 H9          41.2650    -7.6870    32.3260 hn         1 WAP       0.536000
     37 H10         42.9070    -8.1860    30.1430 h1         1 WAP       0.092700
     38 H11         42.3370    -6.4180    28.4650 hc         1 WAP       0.085450
     39 H12         41.4170    -5.5030    29.7530 hc         1 WAP       0.085450
     40 H13         39.8980    -7.4630    30.0970 hc         1 WAP       0.085450
     41 H14         40.7980    -8.4110    28.8220 hc         1 WAP       0.085450
     42 H15         41.1220    -6.7290    36.5130 h4         1 WAP       0.057800
@<TRIPOS>BOND
     1     1     2 3   
     2     2     3 1   
     3     3     4 2   
     4     3    27 1   
     5     4     5 1   
     6     4    25 1   
     7     5     6 2   
     8     6     7 1   
     9     6    19 1   
    10     7     8 1   
    11     7    28 1   
    12     8     9 ar  
    13     8    18 ar  
    14     9    10 ar  
    15     9    29 1   
    16    10    11 ar  
    17    10    30 1   
    18    11    12 ar  
    19    11    31 1   
    20    12    13 1   
    21    12    18 ar  
    22    13    14 1   
    23    13    17 1   
    24    14    15 2   
    25    14    32 1   
    26    15    16 1   
    27    16    17 2   
    28    17    33 1   
    29    18    34 1   
    30    19    20 2   
    31    19    35 1   
    32    20    21 1   
    33    20    25 1   
    34    21    22 1   
    35    21    36 1   
    36    22    23 1   
    37    22    24 1   
    38    22    37 1   
    39    23    24 1   
    40    23    38 1   
    41    23    39 1   
    42    24    40 1   
    43    24    41 1   
    44    25    26 1   
    45    26    27 2   
    46    27    42 1   
@<TRIPOS>SUBSTRUCTURE
     1 WAP         1 TEMP              0 ****  ****    0 ROOT
