@<TRIPOS>MOLECULE
WAP
   42    46     1     0     0
SMALL
No Charge or Current Charge


@<TRIPOS>ATOM
      1 N1          44.2080    -5.2310    38.0590 n1         1 WAP      -0.473000
      2 C2          43.7760    -5.6090    37.0430 cg         1 WAP       0.338700
      3 C3          43.2230    -6.0790    35.8320 cc         1 WAP      -0.252300
      4 C4          43.5900    -5.8250    34.5570 cd         1 WAP       0.515500
      5 N5          44.6390    -5.0080    34.2040 nd         1 WAP      -0.770000
      6 C6          44.6940    -4.9860    32.8910 cc         1 WAP       0.700900
      7 N7          45.6720    -4.2420    32.3240 nu         1 WAP      -0.931900
      8 C8          46.7060    -3.4640    32.8430 ca         1 WAP       0.326000
      9 C9          47.9590    -3.4990    32.2120 ca         1 WAP      -0.174000
     10 C10         49.0200    -2.7170    32.6960 ca         1 WAP      -0.062000
     11 C11         48.8280    -1.8900    33.8150 ca         1 WAP      -0.147000
     12 C12         47.5720    -1.8330    34.4510 ca         1 WAP       0.039800
     13 N13         47.3760    -1.0110    35.5630 na         1 WAP      -0.293800
     14 C14         47.9860     0.1950    35.7860 cc         1 WAP       0.388400
     15 N15         47.5440     0.6530    36.9500 nd         1 WAP      -0.355500
     16 N16         46.6540    -0.2700    37.4740 nd         1 WAP      -0.355500
     17 C17         46.5540    -1.2840    36.6240 cc         1 WAP       0.388400
     18 C18         46.5150    -2.6190    33.9500 ca         1 WAP      -0.141000
     19 C19         43.8520    -5.6750    31.9650 cc         1 WAP      -0.385000
     20 C20         42.8230    -6.4770    32.4020 cd         1 WAP       0.445000
     21 N21         41.9640    -7.1690    31.5880 nu         1 WAP      -0.929200
     22 C22         41.9740    -7.2270    30.1540 cx         1 WAP       0.149500
     23 C23         41.3320    -6.0820    29.4120 cx         1 WAP      -0.126400
     24 C24         40.6500    -7.4270    29.4600 cx         1 WAP      -0.126400
     25 N25         42.7030    -6.5400    33.7890 na         1 WAP       0.027900
     26 N26         41.7460    -7.2750    34.4890 nd         1 WAP      -0.610100
     27 C27         42.1130    -6.9550    35.7340 cc         1 WAP       0.464500
     28 H1          45.7940    -4.4970    31.3500 hn         1 WAP       0.500000
     29 H2          48.1170    -4.1390    31.3480 ha         1 WAP       0.114000
     30 H3          49.9920    -2.7560    32.2080 ha         1 WAP       0.122000
     31 H4          49.6650    -1.3020    34.1850 ha         1 WAP       0.131000
     32 H5          48.6860     0.6660    35.1070 h5         1 WAP       0.069600
     33 H6          45.9560    -2.1810    36.7250 h5         1 WAP       0.069600
     34 H7          45.5340    -2.5650    34.4080 ha         1 WAP       0.171000
     35 H8          44.0300    -5.5530    30.9050 ha         1 WAP       0.141000
     36 H9          41.2850    -7.7100    32.1330 hn         1 WAP       0.536000
     37 H10         42.8590    -7.6900    29.7080 h1         1 WAP       0.092700
     38 H11         41.7860    -5.7760    28.4730 hc         1 WAP       0.085450
     39 H12         40.9030    -5.2720    29.9960 hc         1 WAP       0.085450
     40 H13         39.7560    -7.5180    30.0720 hc         1 WAP       0.085450
     41 H14         40.6440    -8.0260    28.5530 hc         1 WAP       0.085450
     42 H15         41.5490    -7.3760    36.5560 h4         1 WAP       0.057800
@<TRIPOS>BOND
     1     1     2 3   
     2     2     3 1   
     3     3     4 2   
     4     3    27 1   
     5     4     5 1   
     6     4    25 1   
     7     5     6 2   
     8     6     7 1   
     9     6    19 1   
    10     7     8 1   
    11     7    28 1   
    12     8     9 ar  
    13     8    18 ar  
    14     9    10 ar  
    15     9    29 1   
    16    10    11 ar  
    17    10    30 1   
    18    11    12 ar  
    19    11    31 1   
    20    12    13 1   
    21    12    18 ar  
    22    13    14 1   
    23    13    17 1   
    24    14    15 2   
    25    14    32 1   
    26    15    16 1   
    27    16    17 2   
    28    17    33 1   
    29    18    34 1   
    30    19    20 2   
    31    19    35 1   
    32    20    21 1   
    33    20    25 1   
    34    21    22 1   
    35    21    36 1   
    36    22    23 1   
    37    22    24 1   
    38    22    37 1   
    39    23    24 1   
    40    23    38 1   
    41    23    39 1   
    42    24    40 1   
    43    24    41 1   
    44    25    26 1   
    45    26    27 2   
    46    27    42 1   
@<TRIPOS>SUBSTRUCTURE
     1 WAP         1 TEMP              0 ****  ****    0 ROOT
