@<TRIPOS>MOLECULE
WAS
   65    66     1     0     0
SMALL
No Charge or Current Charge


@<TRIPOS>ATOM
      1 N1         -12.5300    22.7360   -12.7070 n7         1 WAS      -0.843400
      2 N3         -18.6480    25.4470   -12.0070 nu         1 WAS      -0.963200
      3 C4         -10.4720    22.9480   -10.3950 c6         1 WAS       0.135300
      4 C5         -10.4340    23.8050   -11.6920 c6         1 WAS       0.195300
      5 C6         -11.8830    24.0000   -12.2650 c6         1 WAS       0.176500
      6 C7         -13.6350    24.7590    -8.7600 c3         1 WAS       0.127600
      7 C8         -13.5660    22.8370   -13.7580 c3         1 WAS       0.132800
      8 C10        -15.8990    21.3920   -12.0450 c          1 WAS       0.640100
      9 C13        -18.2240    26.2290   -10.9280 ca         1 WAS       0.393000
     10 C15        -16.3790    27.3160    -9.7360 ca         1 WAS      -0.065000
     11 C17        -18.6460    27.5720    -8.9290 ca         1 WAS      -0.068000
     12 C1         -12.7660    24.6890   -11.1850 c6         1 WAS      -0.101400
     13 C11        -17.4050    23.2580   -11.8940 c3         1 WAS       0.150600
     14 C12        -17.8420    24.4610   -12.7660 c3         1 WAS       0.221800
     15 C14        -16.8530    26.5180   -10.7910 ca         1 WAS      -0.191000
     16 C16        -17.2730    27.8500    -8.7860 ca         1 WAS       0.202000
     17 C18        -19.1370    26.7660    -9.9900 ca         1 WAS      -0.242200
     18 C2         -12.7930    23.9370    -9.8100 c6         1 WAS       0.128000
     19 C3         -11.3360    23.6450    -9.2970 c6         1 WAS       0.103300
     20 C9         -14.2730    21.4750   -13.9910 c3         1 WAS       0.119000
     21 N2         -14.8540    20.8840   -12.7710 ns         1 WAS      -0.505900
     22 N4         -20.6100    26.5360   -10.0840 no         1 WAS       0.683200
     23 N5         -16.8500    28.6690    -7.7130 nu         1 WAS      -0.709000
     24 N6         -15.4880    28.9960    -7.4770 n7         1 WAS      -0.363000
     25 N7         -14.9000    27.8520    -6.8460 n8         1 WAS      -0.789000
     26 O1         -13.1150    26.0780    -8.4830 oh         1 WAS      -0.736000
     27 O2         -13.4340    22.6640    -9.9600 oh         1 WAS      -0.718000
     28 O3         -11.3830    22.7880    -8.1300 oh         1 WAS      -0.736000
     29 O4          -9.1350    22.7150    -9.9030 oh         1 WAS      -0.735000
     30 O5          -9.5320    23.1920   -12.6310 oh         1 WAS      -0.698000
     31 O6         -16.4200    22.5110   -12.6290 os         1 WAS      -0.471100
     32 O7         -16.3020    20.8830   -11.0130 o          1 WAS      -0.537000
     33 O8         -21.0240    25.5000   -10.6230 o          1 WAS      -0.422500
     34 O9         -21.3580    27.3710    -9.5600 o          1 WAS      -0.422500
     35 H1         -12.9920    22.3620   -11.8620 hn         1 WAS       0.428000
     36 H3         -19.6600    25.2740   -11.9990 hn         1 WAS       0.538000
     37 H4         -10.9430    21.9840   -10.6390 h1         1 WAS       0.075700
     38 H5         -10.0460    24.8000   -11.4250 h1         1 WAS       0.032700
     39 H6         -11.7990    24.6730   -13.1320 h1         1 WAS       0.070700
     40 H7         -14.6590    24.8430    -9.1500 h1         1 WAS       0.064200
     41 H8         -13.7040    24.1770    -7.8300 h1         1 WAS       0.064200
     42 H9         -13.1170    23.1670   -14.7050 h1         1 WAS       0.041700
     43 H10        -14.3190    23.5860   -13.4820 h1         1 WAS       0.041700
     44 H11        -15.3150    27.5180    -9.6690 ha         1 WAS       0.126000
     45 H12        -19.3360    27.9880    -8.1980 ha         1 WAS       0.152000
     46 H13        -12.3830    25.7070   -11.0340 hc         1 WAS       0.062700
     47 H14        -13.7910    24.8170   -11.5590 hc         1 WAS       0.062700
     48 H15        -18.2810    22.6410   -11.6570 h1         1 WAS       0.062200
     49 H16        -16.9750    23.6250   -10.9520 h1         1 WAS       0.062200
     50 H17        -16.9510    24.9430   -13.1900 h1         1 WAS       0.064700
     51 H18        -18.4270    24.0750   -13.6120 h1         1 WAS       0.064700
     52 H19        -16.1350    26.1350   -11.5080 ha         1 WAS       0.121000
     53 H20        -10.8510    24.6010    -9.0490 h1         1 WAS       0.049700
     54 H21        -13.5450    20.7650   -14.4040 h1         1 WAS       0.060700
     55 H22        -15.0680    21.6040   -14.7370 h1         1 WAS       0.060700
     56 H23        -14.4250    20.0500   -12.3900 hn         1 WAS       0.338500
     57 H24        -17.5780    29.1180    -7.1400 hn         1 WAS       0.494000
     58 H25        -14.9530    29.4520    -8.2510 hn         1 WAS       0.382000
     59 H26        -14.4060    27.2370    -7.5190 hn         1 WAS       0.407500
     60 H27        -14.2220    28.1120    -6.1150 hn         1 WAS       0.407500
     61 H28        -12.2390    25.9700    -8.0460 ho         1 WAS       0.501000
     62 H29        -13.0490    22.1300    -9.2210 ho         1 WAS       0.525000
     63 H30        -11.2570    23.3540    -7.3310 ho         1 WAS       0.510000
     64 H31         -9.2660    22.3800    -8.9820 ho         1 WAS       0.522000
     65 H32         -8.8730    22.7480   -12.0440 ho         1 WAS       0.518000
@<TRIPOS>BOND
     1     1     5 1   
     2     1     7 1   
     3     1    35 1   
     4     2     9 1   
     5     2    14 1   
     6     2    36 1   
     7     3     4 1   
     8     3    19 1   
     9     3    29 1   
    10     3    37 1   
    11     4     5 1   
    12     4    30 1   
    13     4    38 1   
    14     5    12 1   
    15     5    39 1   
    16     6    18 1   
    17     6    26 1   
    18     6    40 1   
    19     6    41 1   
    20     7    20 1   
    21     7    42 1   
    22     7    43 1   
    23     8    21 1   
    24     8    31 1   
    25     8    32 2   
    26     9    15 ar  
    27     9    17 ar  
    28    10    15 ar  
    29    10    16 ar  
    30    10    44 1   
    31    11    16 ar  
    32    11    17 ar  
    33    11    45 1   
    34    12    18 1   
    35    12    46 1   
    36    12    47 1   
    37    13    14 1   
    38    13    31 1   
    39    13    48 1   
    40    13    49 1   
    41    14    50 1   
    42    14    51 1   
    43    15    52 1   
    44    16    23 1   
    45    17    22 1   
    46    18    19 1   
    47    18    27 1   
    48    19    28 1   
    49    19    53 1   
    50    20    21 1   
    51    20    54 1   
    52    20    55 1   
    53    21    56 1   
    54    22    33 1   
    55    22    34 1   
    56    23    24 1   
    57    23    57 1   
    58    24    25 1   
    59    24    58 1   
    60    25    59 1   
    61    25    60 1   
    62    26    61 1   
    63    27    62 1   
    64    28    63 1   
    65    29    64 1   
    66    30    65 1   
@<TRIPOS>SUBSTRUCTURE
     1 WAS         1 TEMP              0 ****  ****    0 ROOT
