@<TRIPOS>MOLECULE
WAU
   41    45     1     0     0
SMALL
No Charge or Current Charge


@<TRIPOS>ATOM
      1 N1          43.1570    -3.3690    37.5620 n1         1 WAU      -0.471000
      2 C2          42.8430    -3.9460    36.5980 cg         1 WAU       0.338700
      3 C3          42.4410    -4.6660    35.4520 cc         1 WAU      -0.247300
      4 C4          42.9840    -4.6960    34.2150 cd         1 WAU       0.511500
      5 N5          44.0960    -3.9760    33.8440 nd         1 WAU      -0.765000
      6 C6          44.3410    -4.2580    32.5830 cc         1 WAU       0.698900
      7 C7          43.6110    -5.1300    31.7190 cc         1 WAU      -0.382000
      8 C8          42.5040    -5.8130    32.1710 cd         1 WAU       0.445000
      9 N9          41.7480    -6.6720    31.4170 nu         1 WAU      -0.925200
     10 C10         41.9240    -7.0080    30.0320 cx         1 WAU       0.146500
     11 C11         41.4960    -8.3860    29.5940 cx         1 WAU      -0.124900
     12 C12         42.9630    -8.0490    29.7000 cx         1 WAU      -0.124900
     13 N13         45.3990    -3.6410    32.0080 nu         1 WAU      -0.930900
     14 C14         46.3260    -2.7130    32.4700 ca         1 WAU       0.368000
     15 C15         46.7350    -1.6850    31.6270 ca         1 WAU      -0.243000
     16 C16         47.6750    -0.7680    32.0980 ca         1 WAU       0.391900
     17 N17         48.2080    -0.8370    33.3360 nb         1 WAU      -0.709000
     18 C18         47.8280    -1.8350    34.1590 ca         1 WAU       0.483500
     19 N19         48.3370    -1.9480    35.4350 na         1 WAU      -0.403500
     20 C20         49.5790    -1.5310    35.8110 cc         1 WAU       0.402400
     21 N21         49.6460    -1.6430    37.1310 nd         1 WAU      -0.358000
     22 N22         48.4180    -2.0840    37.5950 nd         1 WAU      -0.358000
     23 C23         47.6110    -2.2410    36.5530 cc         1 WAU       0.402400
     24 C24         46.8950    -2.7960    33.7420 ca         1 WAU      -0.201000
     25 N25         42.1910    -5.5650    33.5060 na         1 WAU       0.030900
     26 N26         41.1260    -6.1290    34.2090 nd         1 WAU      -0.608100
     27 C27         41.3290    -5.5430    35.3930 cc         1 WAU       0.466500
     28 H1          43.9430    -5.2550    30.6980 ha         1 WAU       0.142000
     29 H2          40.9660    -7.0560    31.9570 hn         1 WAU       0.537000
     30 H3          41.7880    -6.1830    29.3270 h1         1 WAU       0.093700
     31 H4          41.0690    -8.4860    28.5990 hc         1 WAU       0.086200
     32 H5          41.0760    -9.0570    30.3390 hc         1 WAU       0.086200
     33 H6          43.5270    -8.4860    30.5200 hc         1 WAU       0.086200
     34 H7          43.5240    -7.9230    28.7780 hc         1 WAU       0.086200
     35 H8          45.3490    -3.7090    30.9980 hn         1 WAU       0.504000
     36 H9          46.3320    -1.5830    30.6240 ha         1 WAU       0.125000
     37 H10         48.0150     0.0530    31.4670 h4         1 WAU       0.028100
     38 H11         50.3490    -1.1890    35.1280 h5         1 WAU       0.078100
     39 H12         46.5690    -2.5400    36.5570 h5         1 WAU       0.078100
     40 H13         46.6220    -3.6130    34.3990 ha         1 WAU       0.177000
     41 H14         40.6480    -5.7750    36.2010 h4         1 WAU       0.059800
@<TRIPOS>BOND
     1     1     2 3   
     2     2     3 1   
     3     3     4 2   
     4     3    27 1   
     5     4     5 1   
     6     4    25 1   
     7     5     6 2   
     8     6     7 1   
     9     6    13 1   
    10     7     8 2   
    11     7    28 1   
    12     8     9 1   
    13     8    25 1   
    14     9    10 1   
    15     9    29 1   
    16    10    11 1   
    17    10    12 1   
    18    10    30 1   
    19    11    12 1   
    20    11    31 1   
    21    11    32 1   
    22    12    33 1   
    23    12    34 1   
    24    13    14 1   
    25    13    35 1   
    26    14    15 ar  
    27    14    24 ar  
    28    15    16 ar  
    29    15    36 1   
    30    16    17 ar  
    31    16    37 1   
    32    17    18 ar  
    33    18    19 1   
    34    18    24 ar  
    35    19    20 1   
    36    19    23 1   
    37    20    21 2   
    38    20    38 1   
    39    21    22 1   
    40    22    23 2   
    41    23    39 1   
    42    24    40 1   
    43    25    26 1   
    44    26    27 2   
    45    27    41 1   
@<TRIPOS>SUBSTRUCTURE
     1 WAU         1 TEMP              0 ****  ****    0 ROOT
