@<TRIPOS>MOLECULE
WAU
   41    45     1     0     0
SMALL
abcg2


@<TRIPOS>ATOM
      1 N1          43.9220    -3.9970    37.6720 n1         1 WAU      -0.471000
      2 C2          43.4250    -4.5030    36.7590 cg         1 WAU       0.338700
      3 C3          42.8420    -5.1020    35.6330 cc         1 WAU      -0.247300
      4 C4          43.3000    -4.9710    34.3070 cd         1 WAU       0.511500
      5 N5          44.3210    -4.3070    33.7790 nd         1 WAU      -0.765000
      6 C6          44.4620    -4.3980    32.4580 cc         1 WAU       0.698900
      7 C7          43.5990    -5.1460    31.6290 cc         1 WAU      -0.382000
      8 C8          42.5420    -5.8350    32.1990 cd         1 WAU       0.445000
      9 N9          41.6430    -6.5930    31.5650 nu         1 WAU      -0.925200
     10 C10         41.6060    -6.7240    30.1390 cx         1 WAU       0.146500
     11 C11         41.2060    -8.0530    29.5800 cx         1 WAU      -0.124900
     12 C12         42.6350    -7.5940    29.4680 cx         1 WAU      -0.124900
     13 N13         45.4970    -3.7270    31.8460 nu         1 WAU      -0.930900
     14 C14         46.4890    -2.9230    32.3740 ca         1 WAU       0.368000
     15 C15         47.3830    -2.3190    31.4730 ca         1 WAU      -0.243000
     16 C16         48.3890    -1.5150    31.9640 ca         1 WAU       0.391900
     17 N17         48.5670    -1.2550    33.2670 nb         1 WAU      -0.709000
     18 C18         47.7160    -1.8340    34.1010 ca         1 WAU       0.483500
     19 N19         47.9230    -1.5420    35.4790 na         1 WAU      -0.403500
     20 C20         49.0210    -0.9410    36.0320 cc         1 WAU       0.402400
     21 N21         48.8740    -0.8250    37.3230 nd         1 WAU      -0.358000
     22 N22         47.6340    -1.3590    37.6480 nd         1 WAU      -0.358000
     23 C23         47.0900    -1.7800    36.5390 cc         1 WAU       0.402400
     24 C24         46.6760    -2.6750    33.7370 ca         1 WAU      -0.201000
     25 N25         42.4200    -5.7230    33.5620 na         1 WAU       0.030900
     26 N26         41.4430    -6.3190    34.3120 nd         1 WAU      -0.608100
     27 C27         41.7040    -5.9390    35.5510 cc         1 WAU       0.466500
     28 H1          43.7520    -5.1870    30.5630 ha         1 WAU       0.142000
     29 H2          40.8800    -6.9580    32.1170 hn         1 WAU       0.537000
     30 H3          41.2830    -5.8330    29.6120 h1         1 WAU       0.093700
     31 H4          40.5890    -8.0510    28.6920 hc         1 WAU       0.086200
     32 H5          40.9870    -8.8390    30.2910 hc         1 WAU       0.086200
     33 H6          43.3640    -8.0690    30.1100 hc         1 WAU       0.086200
     34 H7          43.0040    -7.2740    28.5030 hc         1 WAU       0.086200
     35 H8          45.5250    -3.8210    30.8420 hn         1 WAU       0.504000
     36 H9          47.2840    -2.4830    30.4080 ha         1 WAU       0.125000
     37 H10         49.0880    -1.0460    31.2820 h4         1 WAU       0.028100
     38 H11         49.8700    -0.6250    35.4530 h5         1 WAU       0.078100
     39 H12         46.1200    -2.2400    36.4540 h5         1 WAU       0.078100
     40 H13         46.0330    -3.1320    34.4650 ha         1 WAU       0.177000
     41 H14         41.0770    -6.2700    36.3640 h4         1 WAU       0.059800
@<TRIPOS>BOND
     1     1     2 3   
     2     2     3 1   
     3     3     4 2   
     4     3    27 1   
     5     4     5 1   
     6     4    25 1   
     7     5     6 2   
     8     6     7 1   
     9     6    13 1   
    10     7     8 2   
    11     7    28 1   
    12     8     9 1   
    13     8    25 1   
    14     9    10 1   
    15     9    29 1   
    16    10    11 1   
    17    10    12 1   
    18    10    30 1   
    19    11    12 1   
    20    11    31 1   
    21    11    32 1   
    22    12    33 1   
    23    12    34 1   
    24    13    14 1   
    25    13    35 1   
    26    14    15 ar  
    27    14    24 ar  
    28    15    16 ar  
    29    15    36 1   
    30    16    17 ar  
    31    16    37 1   
    32    17    18 ar  
    33    18    19 1   
    34    18    24 ar  
    35    19    20 1   
    36    19    23 1   
    37    20    21 2   
    38    20    38 1   
    39    21    22 1   
    40    22    23 2   
    41    23    39 1   
    42    24    40 1   
    43    25    26 1   
    44    26    27 2   
    45    27    41 1   
@<TRIPOS>SUBSTRUCTURE
     1 WAU         1 TEMP              0 ****  ****    0 ROOT
