@<TRIPOS>MOLECULE
WAV
   61    62     1     0     0
SMALL
No Charge or Current Charge


@<TRIPOS>ATOM
      1 N1         -12.9950    20.7120    13.3510 n7         1 WAV      -0.889400
      2 N3         -14.6120    26.4300    12.5930 no         1 WAV       0.689200
      3 C4         -15.1460    18.7400    12.3840 c6         1 WAV       0.137300
      4 C5         -14.9950    19.2850    13.8380 c6         1 WAV       0.127300
      5 C6         -14.4050    20.7360    13.8300 c6         1 WAV       0.137500
      6 C7         -16.3110    22.1320    10.6340 c3         1 WAV       0.170600
      7 C8         -12.0210    21.6580    13.9640 c3         1 WAV       0.152800
      8 C10        -11.2570    25.3470    13.8030 c3         1 WAV       0.121600
      9 C13        -11.8920    29.0690    12.6700 ca         1 WAV      -0.150000
     10 C15        -12.9850    29.1250    10.4850 ca         1 WAV       0.274000
     11 C17        -13.6870    27.5090    12.1970 ca         1 WAV      -0.168200
     12 C1         -15.3030    21.6600    12.9580 c6         1 WAV      -0.108400
     13 C11        -12.3130    26.0450    14.7060 c3         1 WAV       0.145800
     14 C12        -12.7090    28.0050    13.0860 ca         1 WAV       0.290000
     15 C14        -12.0270    29.6250    11.3840 ca         1 WAV      -0.103000
     16 C16        -13.8140    28.0630    10.9020 ca         1 WAV      -0.065000
     17 C2         -15.4190    21.1560    11.4910 c6         1 WAV       0.204000
     18 C3         -16.0160    19.6910    11.5060 c6         1 WAV       0.165300
     19 C9         -12.3110    23.1460    13.6490 c3         1 WAV       0.146600
     20 N2         -12.4800    27.4790    14.3640 nu         1 WAV      -0.891200
     21 N5         -14.0410    29.2770     8.2450 n7         1 WAV      -0.383000
     22 N6         -13.2570    28.7490     7.1680 n8         1 WAV      -0.815000
     23 O1         -17.6650    22.2580    11.1180 oh         1 WAV      -0.727000
     24 O2         -14.0810    21.1670    10.9610 oh         1 WAV      -0.741000
     25 O3         -16.1410    19.1060    10.1920 oh         1 WAV      -0.703000
     26 O4         -15.7100    17.4140    12.4150 oh         1 WAV      -0.731000
     27 O5         -14.1520    18.3870    14.5940 oh         1 WAV      -0.731000
     28 O6         -11.1920    23.9360    14.1070 os         1 WAV      -0.454000
     29 O7         -15.4410    26.6780    13.4770 o          1 WAV      -0.395000
     30 O8         -14.6460    25.4210    11.8800 o          1 WAV      -0.395000
     31 H1         -12.6500    19.7680    13.6010 hn         1 WAV       0.438000
     32 H3         -14.1410    18.6920    11.9380 h1         1 WAV       0.062700
     33 H4         -15.9970    19.3300    14.2930 h1         1 WAV       0.054700
     34 H5         -14.4200    21.1080    14.8660 h1         1 WAV       0.033700
     35 H6         -16.3170    21.7710     9.5970 h1         1 WAV       0.039700
     36 H7         -15.8260    23.1180    10.6270 h1         1 WAV       0.039700
     37 H8         -11.0140    21.4260    13.5930 h1         1 WAV       0.044700
     38 H9         -12.0000    21.5290    15.0550 h1         1 WAV       0.044700
     39 H10        -11.5090    25.4990    12.7450 h1         1 WAV       0.047200
     40 H11        -10.2800    25.8140    13.9810 h1         1 WAV       0.047200
     41 H12        -11.1330    29.4630    13.3410 ha         1 WAV       0.119000
     42 H13        -14.9350    22.6920    12.9690 hc         1 WAV       0.068700
     43 H14        -16.3030    21.7070    13.4110 hc         1 WAV       0.068700
     44 H15        -11.9950    25.9470    15.7530 h1         1 WAV       0.070200
     45 H16        -13.2750    25.5260    14.6220 h1         1 WAV       0.070200
     46 H17        -11.3790    30.4440    11.0860 ha         1 WAV       0.120000
     47 H18        -14.5660    27.6710    10.2230 ha         1 WAV       0.161000
     48 H19        -17.0120    19.7440    11.9710 h1         1 WAV       0.054700
     49 H20        -13.2350    23.4430    14.1580 h1         1 WAV       0.044700
     50 H21        -12.4490    23.2650    12.5660 h1         1 WAV       0.044700
     51 H22        -11.9760    28.1210    14.9800 hn         1 WAV       0.444000
     52 H23        -12.4400    30.4690     8.9700 hn         1 WAV       0.442000
     53 H24        -14.8130    29.9440     7.9940 hn         1 WAV       0.418000
     54 H25        -13.6800    27.9070     6.7490 hn         1 WAV       0.405500
     55 H26        -13.1140    29.4290     6.4050 hn         1 WAV       0.405500
     56 H27        -18.1340    22.8690    10.5020 ho         1 WAV       0.504000
     57 H28        -13.5230    21.0210    11.7870 ho         1 WAV       0.543000
     58 H29        -16.1460    18.1350    10.3730 ho         1 WAV       0.513000
     59 H30        -15.2890    16.9950    13.2060 ho         1 WAV       0.519000
     60 H31        -14.1450    18.7120    15.5250 ho         1 WAV       0.509000
     61 N4         -13.0900    29.7100     9.2040 nu         1 WAV      -0.687000
@<TRIPOS>BOND
     1     1     5 1   
     2     1     7 1   
     3     1    31 1   
     4     2    11 1   
     5     2    29 1   
     6     2    30 1   
     7     3     4 1   
     8     3    18 1   
     9     3    26 1   
    10     3    32 1   
    11     4     5 1   
    12     4    27 1   
    13     4    33 1   
    14     5    12 1   
    15     5    34 1   
    16     6    17 1   
    17     6    23 1   
    18     6    35 1   
    19     6    36 1   
    20     7    19 1   
    21     7    37 1   
    22     7    38 1   
    23     8    13 1   
    24     8    28 1   
    25     8    39 1   
    26     8    40 1   
    27     9    14 ar  
    28     9    15 ar  
    29     9    41 1   
    30    10    15 ar  
    31    10    16 ar  
    32    10    61 1   
    33    11    14 ar  
    34    11    16 ar  
    35    12    17 1   
    36    12    42 1   
    37    12    43 1   
    38    13    20 1   
    39    13    44 1   
    40    13    45 1   
    41    14    20 1   
    42    15    46 1   
    43    16    47 1   
    44    17    18 1   
    45    17    24 1   
    46    18    25 1   
    47    18    48 1   
    48    19    28 1   
    49    19    49 1   
    50    19    50 1   
    51    20    51 1   
    52    21    22 1   
    53    21    53 1   
    54    21    61 1   
    55    22    54 1   
    56    22    55 1   
    57    23    56 1   
    58    24    57 1   
    59    25    58 1   
    60    26    59 1   
    61    27    60 1   
    62    52    61 1   
@<TRIPOS>SUBSTRUCTURE
     1 WAV         1 TEMP              0 ****  ****    0 ROOT
