@<TRIPOS>MOLECULE
WAV
   61    62     1     0     0
SMALL
abcg2


@<TRIPOS>ATOM
      1 N1         -13.0130    21.0170    13.6250 n7         1 WAV      -0.889400
      2 N3         -15.1280    26.6170    13.6330 no         1 WAV       0.689200
      3 C4         -14.9780    19.6290    11.7480 c6         1 WAV       0.137300
      4 C5         -15.1850    19.9250    13.2300 c6         1 WAV       0.127300
      5 C6         -14.4660    21.2030    13.6750 c6         1 WAV       0.137500
      6 C7         -15.0580    23.2980    10.4550 c3         1 WAV       0.170600
      7 C8         -12.2410    21.9060    14.4880 c3         1 WAV       0.152800
      8 C10        -10.9670    25.2670    14.3270 c3         1 WAV       0.121600
      9 C13        -12.0250    28.1380    12.2430 ca         1 WAV      -0.150000
     10 C15        -13.6890    27.9510    10.4990 ca         1 WAV       0.274000
     11 C17        -14.1160    27.1530    12.7340 ca         1 WAV      -0.168200
     12 C1         -14.9290    22.3520    12.7830 c6         1 WAV      -0.108400
     13 C11        -12.2040    25.9270    14.9380 c3         1 WAV       0.145800
     14 C12        -12.8460    27.5210    13.1950 ca         1 WAV       0.290000
     15 C14        -12.4300    28.3670    10.9470 ca         1 WAV      -0.103000
     16 C16        -14.5220    27.3220    11.4130 ca         1 WAV      -0.065000
     17 C2         -14.6390    22.0940    11.2990 c6         1 WAV       0.204000
     18 C3         -15.3950    20.8200    10.8880 c6         1 WAV       0.165300
     19 C9         -11.6640    23.0930    13.7280 c3         1 WAV       0.146600
     20 N2         -12.3840    27.3030    14.4920 nu         1 WAV      -0.891200
     21 N5         -15.1670    27.5340     8.7040 n7         1 WAV      -0.383000
     22 N6         -14.8170    26.2640     8.2040 n8         1 WAV      -0.815000
     23 O1         -16.4520    23.4810    10.5350 oh         1 WAV      -0.727000
     24 O2         -13.2540    21.9490    11.0650 oh         1 WAV      -0.741000
     25 O3         -15.1590    20.5670     9.5260 oh         1 WAV      -0.703000
     26 O4         -15.7720    18.5360    11.3340 oh         1 WAV      -0.731000
     27 O5         -14.7540    18.7870    13.9450 oh         1 WAV      -0.731000
     28 O6         -10.9180    23.8910    14.6220 os         1 WAV      -0.454000
     29 O7         -15.1730    27.0390    14.7640 o          1 WAV      -0.395000
     30 O8         -15.9080    25.8030    13.1910 o          1 WAV      -0.395000
     31 H1         -12.8120    20.0590    13.8820 hn         1 WAV       0.438000
     32 H3         -13.9160    19.4110    11.5650 h1         1 WAV       0.062700
     33 H4         -16.2590    20.0980    13.3890 h1         1 WAV       0.054700
     34 H5         -14.7860    21.4160    14.7070 h1         1 WAV       0.033700
     35 H6         -14.7300    23.1450     9.4190 h1         1 WAV       0.039700
     36 H7         -14.5150    24.1740    10.8330 h1         1 WAV       0.039700
     37 H8         -11.4160    21.3360    14.9200 h1         1 WAV       0.044700
     38 H9         -12.8450    22.2730    15.3280 h1         1 WAV       0.044700
     39 H10        -10.9460    25.4420    13.2430 h1         1 WAV       0.047200
     40 H11        -10.0640    25.7250    14.7410 h1         1 WAV       0.047200
     41 H12        -11.0260    28.4330    12.5400 ha         1 WAV       0.119000
     42 H13        -14.4640    23.2910    13.0940 hc         1 WAV       0.068700
     43 H14        -16.0030    22.4890    12.9300 hc         1 WAV       0.068700
     44 H15        -12.1260    25.9220    16.0270 h1         1 WAV       0.070200
     45 H16        -13.0900    25.3380    14.6950 h1         1 WAV       0.070200
     46 H17        -11.7490    28.8570    10.2600 ha         1 WAV       0.120000
     47 H18        -15.5060    27.0000    11.1050 ha         1 WAV       0.161000
     48 H19        -16.4680    20.9920    11.0690 h1         1 WAV       0.054700
     49 H20        -12.4700    23.6700    13.2660 h1         1 WAV       0.044700
     50 H21        -11.0240    22.7350    12.9120 h1         1 WAV       0.044700
     51 H22        -11.5470    27.8440    14.6670 hn         1 WAV       0.444000
     52 H23        -13.3000    28.3250     8.5550 hn         1 WAV       0.442000
     53 H24        -15.5900    28.1160     7.9920 hn         1 WAV       0.418000
     54 H25        -15.6350    25.6730     8.2660 hn         1 WAV       0.405500
     55 H26        -14.5560    26.3140     7.2240 hn         1 WAV       0.405500
     56 H27        -16.6600    24.3710    10.2390 ho         1 WAV       0.504000
     57 H28        -12.8810    21.5130    11.8610 ho         1 WAV       0.543000
     58 H29        -15.6010    19.7420     9.3000 ho         1 WAV       0.513000
     59 H30        -15.4180    17.7340    11.7300 ho         1 WAV       0.519000
     60 H31        -15.0720    18.8540    14.8510 ho         1 WAV       0.509000
     61 N4         -14.0790    28.2290     9.1990 nu         1 WAV      -0.687000
@<TRIPOS>BOND
     1     1     5 1   
     2     1     7 1   
     3     1    31 1   
     4     2    11 1   
     5     2    29 1   
     6     2    30 1   
     7     3     4 1   
     8     3    18 1   
     9     3    26 1   
    10     3    32 1   
    11     4     5 1   
    12     4    27 1   
    13     4    33 1   
    14     5    12 1   
    15     5    34 1   
    16     6    17 1   
    17     6    23 1   
    18     6    35 1   
    19     6    36 1   
    20     7    19 1   
    21     7    37 1   
    22     7    38 1   
    23     8    13 1   
    24     8    28 1   
    25     8    39 1   
    26     8    40 1   
    27     9    14 ar  
    28     9    15 ar  
    29     9    41 1   
    30    10    15 ar  
    31    10    16 ar  
    32    10    61 1   
    33    11    14 ar  
    34    11    16 ar  
    35    12    17 1   
    36    12    42 1   
    37    12    43 1   
    38    13    20 1   
    39    13    44 1   
    40    13    45 1   
    41    14    20 1   
    42    15    46 1   
    43    16    47 1   
    44    17    18 1   
    45    17    24 1   
    46    18    25 1   
    47    18    48 1   
    48    19    28 1   
    49    19    49 1   
    50    19    50 1   
    51    20    51 1   
    52    21    22 1   
    53    21    53 1   
    54    21    61 1   
    55    22    54 1   
    56    22    55 1   
    57    23    56 1   
    58    24    57 1   
    59    25    58 1   
    60    26    59 1   
    61    27    60 1   
    62    52    61 1   
@<TRIPOS>SUBSTRUCTURE
     1 WAV         1 TEMP              0 ****  ****    0 ROOT
