@<TRIPOS>MOLECULE
WAX
   29    30     1     0     0
SMALL
abcg2


@<TRIPOS>ATOM
      1 N1          29.3330    16.4790    41.6470 n          1 WAX      -0.407800
      2 C7          30.1740    16.9880    42.7340 c6         1 WAX       0.070500
      3 C8          30.6640    15.8140    43.5790 c6         1 WAX       0.139600
      4 C9          29.9560    14.1480    42.0410 c6         1 WAX       0.139600
      5 O1          31.0620    14.7390    42.7360 os         1 WAX      -0.451000
      6 C1          27.0820    17.2570    39.0710 ca         1 WAX      -0.116000
      7 C5          26.9870    15.7350    37.1940 ca         1 WAX      -0.163000
      8 C6          29.0510    17.2870    40.6060 c          1 WAX       0.611700
      9 C4          28.2350    15.1970    37.5410 ca         1 WAX       0.284000
     10 C3          28.8850    15.6940    38.6780 ca         1 WAX      -0.157000
     11 C2          28.3130    16.7120    39.4340 ca         1 WAX      -0.096600
     12 O           29.4040    18.4730    40.5920 o          1 WAX      -0.596100
     13 C           26.4250    16.7510    37.9540 ca         1 WAX      -0.076000
     14 C10         28.8030    15.1380    41.8590 c6         1 WAX       0.070500
     15 H1          31.0190    17.5140    42.2910 h1         1 WAX       0.061200
     16 H2          29.6220    17.7000    43.3560 h1         1 WAX       0.061200
     17 H3          31.5410    16.1140    44.1500 h1         1 WAX       0.050950
     18 H4          29.8960    15.4830    44.2860 h1         1 WAX       0.050950
     19 H5          29.5960    13.2690    42.5860 h1         1 WAX       0.050950
     20 H6          30.3410    13.8290    41.0720 h1         1 WAX       0.050950
     21 H7          26.6460    18.0540    39.6580 ha         1 WAX       0.127000
     22 H8          26.4680    15.3510    36.3240 ha         1 WAX       0.114000
     23 H9          29.8450    15.2790    38.9640 ha         1 WAX       0.119000
     24 H10         29.5340    13.6610    37.2070 hn         1 WAX       0.449500
     25 H11         28.2140    13.6870    36.1720 hn         1 WAX       0.449500
     26 H12         25.4590    17.1520    37.6720 ha         1 WAX       0.115000
     27 H13         28.1650    15.1530    42.7460 h1         1 WAX       0.061200
     28 H14         28.1850    14.8390    41.0190 h1         1 WAX       0.061200
     29 N           28.8390    14.2320    36.7480 nv         1 WAX      -1.076000
@<TRIPOS>BOND
     1     1     2 1   
     2     1     8 1   
     3     1    14 1   
     4     2     3 1   
     5     2    15 1   
     6     2    16 1   
     7     3     5 1   
     8     3    17 1   
     9     3    18 1   
    10     4     5 1   
    11     4    14 1   
    12     4    19 1   
    13     4    20 1   
    14     6    11 ar  
    15     6    13 ar  
    16     6    21 1   
    17     7     9 ar  
    18     7    13 ar  
    19     7    22 1   
    20     8    11 1   
    21     8    12 2   
    22     9    10 ar  
    23     9    29 1   
    24    10    11 ar  
    25    10    23 1   
    26    13    26 1   
    27    14    27 1   
    28    14    28 1   
    29    24    29 1   
    30    25    29 1   
@<TRIPOS>SUBSTRUCTURE
     1 WAX         1 TEMP              0 ****  ****    0 ROOT
