@<TRIPOS>MOLECULE
WAX
   29    30     1     0     0
SMALL
No Charge or Current Charge


@<TRIPOS>ATOM
      1 N1          29.5460    16.3450    41.5520 n          1 WAX      -0.407800
      2 C7          30.4760    16.8520    42.6170 c6         1 WAX       0.070500
      3 C8          30.7220    15.8870    43.8060 c6         1 WAX       0.139600
      4 C9          29.7560    14.0310    42.6620 c6         1 WAX       0.139600
      5 O1          30.9160    14.5390    43.3440 os         1 WAX      -0.451000
      6 C1          26.9040    17.2530    39.1600 ca         1 WAX      -0.116000
      7 C5          26.7330    15.8480    37.1810 ca         1 WAX      -0.163000
      8 C6          28.9460    17.2550    40.6430 c          1 WAX       0.611700
      9 C4          28.0180    15.3450    37.4270 ca         1 WAX       0.284000
     10 C3          28.7430    15.7880    38.5440 ca         1 WAX      -0.157000
     11 C2          28.1850    16.7310    39.4410 ca         1 WAX      -0.096600
     12 O           29.0390    18.4640    40.8250 o          1 WAX      -0.596100
     13 C           26.1770    16.8080    38.0430 ca         1 WAX      -0.076000
     14 C10         29.4750    14.8560    41.3810 c6         1 WAX       0.070500
     15 H1          31.4430    17.0760    42.1470 h1         1 WAX       0.061200
     16 H2          30.0930    17.7990    43.0240 h1         1 WAX       0.061200
     17 H3          31.6080    16.2080    44.3720 h1         1 WAX       0.050950
     18 H4          29.8600    15.9100    44.4890 h1         1 WAX       0.050950
     19 H5          28.8900    14.0790    43.3370 h1         1 WAX       0.050950
     20 H6          29.9230    12.9770    42.3990 h1         1 WAX       0.050950
     21 H7          26.4660    18.0000    39.8200 ha         1 WAX       0.127000
     22 H8          26.1690    15.5100    36.3170 ha         1 WAX       0.114000
     23 H9          29.7530    15.4230    38.6960 ha         1 WAX       0.119000
     24 H10         29.4440    13.9680    36.8110 hn         1 WAX       0.449500
     25 H11         28.0010    14.0140    35.8340 hn         1 WAX       0.449500
     26 H12         25.1850    17.2090    37.8440 ha         1 WAX       0.115000
     27 H13         28.4850    14.5710    40.9990 h1         1 WAX       0.061200
     28 H14         30.2190    14.5560    40.6310 h1         1 WAX       0.061200
     29 N           28.5680    14.4290    36.5720 nv         1 WAX      -1.076000
@<TRIPOS>BOND
     1     1     2 1   
     2     1     8 1   
     3     1    14 1   
     4     2     3 1   
     5     2    15 1   
     6     2    16 1   
     7     3     5 1   
     8     3    17 1   
     9     3    18 1   
    10     4     5 1   
    11     4    14 1   
    12     4    19 1   
    13     4    20 1   
    14     6    11 ar  
    15     6    13 ar  
    16     6    21 1   
    17     7     9 ar  
    18     7    13 ar  
    19     7    22 1   
    20     8    11 1   
    21     8    12 2   
    22     9    10 ar  
    23     9    29 1   
    24    10    11 ar  
    25    10    23 1   
    26    13    26 1   
    27    14    27 1   
    28    14    28 1   
    29    24    29 1   
    30    25    29 1   
@<TRIPOS>SUBSTRUCTURE
     1 WAX         1 TEMP              0 ****  ****    0 ROOT
