@<TRIPOS>MOLECULE
WAY
   51    53     1     0     0
SMALL
No Charge or Current Charge


@<TRIPOS>ATOM
      1 C1          -0.8940     0.1060    -0.8140 ca         1 WAY       0.297000
      2 C2          -1.5330     0.8300     0.2410 ca         1 WAY      -0.148600
      3 CF2         -2.8740     0.5180     0.5770 ca         1 WAY      -0.098000
      4 CH          -3.5830    -0.4690    -0.1160 ca         1 WAY      -0.104000
      5 CF1         -2.9710    -1.1580    -1.1640 ca         1 WAY      -0.098000
      6 C6          -1.6420    -0.8800    -1.5270 ca         1 WAY      -0.041300
      7 C10         -0.8360     1.9250     1.0360 c          1 WAY       0.618700
      8 O11         -0.0180     2.7010     0.5580 o          1 WAY      -0.567100
      9 N12         -1.2770     2.0890     2.3510 ns         1 WAY      -0.380400
     10 O13         -0.5980     2.9900     3.2640 oh         1 WAY      -0.429100
     11 CE          -1.0820    -1.6880    -2.7010 c3         1 WAY      -0.046800
     12 N20          0.4580     0.3420    -1.1520 nh         1 WAY      -0.816300
     13 S21          1.6640    -0.6650    -0.4840 sy         1 WAY       1.201600
     14 CD           0.8570     1.4750    -2.0070 c3         1 WAY       0.291100
     15 CK           0.3560     0.7690    -5.7260 ca         1 WAY      -0.173000
     16 CM           1.6760     0.4310    -6.0700 ca         1 WAY       0.337900
     17 N25          2.6900     0.4250    -5.1750 nb         1 WAY      -0.665000
     18 CJ           2.4030     0.7560    -3.8930 ca         1 WAY       0.348900
     19 C27          1.1100     1.1050    -3.4590 ca         1 WAY      -0.163300
     20 CI           0.0620     1.1170    -4.3980 ca         1 WAY      -0.057000
     21 C35          1.1390    -0.7240     1.2340 ca         1 WAY      -0.347500
     22 CC1          0.1830    -1.6730     1.6430 ca         1 WAY       0.031000
     23 CB1         -0.2350    -1.7070     2.9830 ca         1 WAY      -0.201000
     24 C38          0.3000    -0.8110     3.9200 ca         1 WAY       0.203100
     25 CB2          1.2680     0.1290     3.5100 ca         1 WAY      -0.201000
     26 CC2          1.6840     0.1760     2.1690 ca         1 WAY       0.031000
     27 O45         -0.1570    -0.8910     5.2200 os         1 WAY      -0.336100
     28 CA           0.3090    -0.0020     6.2510 c3         1 WAY       0.145900
     29 O50          2.9360     0.0600    -0.5670 o          1 WAY      -0.543000
     30 O51          1.5050    -1.9970    -1.0740 o          1 WAY      -0.543000
     31 HF2         -3.3960     1.0570     1.3640 ha         1 WAY       0.120000
     32 HH          -4.6150    -0.6900     0.1510 ha         1 WAY       0.121000
     33 HF1         -3.5360    -1.9150    -1.7040 ha         1 WAY       0.121000
     34 H14         -1.8360     1.3560     2.7860 hn         1 WAY       0.343500
     35 H15         -1.3290     3.5410     3.6310 ho         1 WAY       0.445000
     36 HE1         -0.9240    -2.7320    -2.4100 hc         1 WAY       0.054367
     37 HE2         -1.7820    -1.6840    -3.5450 hc         1 WAY       0.054367
     38 HE3         -0.1300    -1.3080    -3.0810 hc         1 WAY       0.054367
     39 HD1          0.0630     2.2340    -1.9930 h1         1 WAY       0.081700
     40 HD2          1.7430     1.9810    -1.5980 h1         1 WAY       0.081700
     41 HL           1.9300     0.1580    -7.0940 h4         1 WAY       0.018100
     42 HJ           3.2400     0.7460    -3.1960 h4         1 WAY       0.036100
     43 HI          -0.9520     1.3800    -4.1040 ha         1 WAY       0.121000
     44 HC1         -0.2450    -2.3750     0.9290 ha         1 WAY       0.138500
     45 HB1         -0.9790    -2.4330     3.2980 ha         1 WAY       0.128500
     46 HB2          1.6980     0.8390     4.2100 ha         1 WAY       0.128500
     47 HC2          2.4210     0.9180     1.8630 ha         1 WAY       0.138500
     48 HA1         -0.1850    -0.2330     7.2030 h1         1 WAY       0.047700
     49 HA2          1.3910    -0.1060     6.3960 h1         1 WAY       0.047700
     50 HA3          0.0850     1.0420     5.9960 h1         1 WAY       0.047700
     51 HK          -0.4220     0.7600    -6.4830 ha         1 WAY       0.123000
@<TRIPOS>BOND
     1     1     2 ar  
     2     1     6 ar  
     3     1    12 1   
     4     2     3 ar  
     5     2     7 1   
     6     3     4 ar  
     7     3    31 1   
     8     4     5 ar  
     9     4    32 1   
    10     5     6 ar  
    11     5    33 1   
    12     6    11 1   
    13     7     8 2   
    14     7     9 1   
    15     9    10 1   
    16     9    34 1   
    17    10    35 1   
    18    11    36 1   
    19    11    37 1   
    20    11    38 1   
    21    12    13 1   
    22    12    14 1   
    23    13    21 1   
    24    13    29 2   
    25    13    30 2   
    26    14    19 1   
    27    14    39 1   
    28    14    40 1   
    29    15    16 ar  
    30    15    20 ar  
    31    15    51 1   
    32    16    17 ar  
    33    16    41 1   
    34    17    18 ar  
    35    18    19 ar  
    36    18    42 1   
    37    19    20 ar  
    38    20    43 1   
    39    21    22 ar  
    40    21    26 ar  
    41    22    23 ar  
    42    22    44 1   
    43    23    24 ar  
    44    23    45 1   
    45    24    25 ar  
    46    24    27 1   
    47    25    26 ar  
    48    25    46 1   
    49    26    47 1   
    50    27    28 1   
    51    28    48 1   
    52    28    49 1   
    53    28    50 1   
@<TRIPOS>SUBSTRUCTURE
     1 WAY         1 TEMP              0 ****  ****    0 ROOT
