@<TRIPOS>MOLECULE
WAY
   51    53     1     0     0
SMALL
bcc


@<TRIPOS>ATOM
      1 C1          -0.9160    -0.0630    -0.9870 ca         1 WAY       0.158600
      2 C2          -1.6870     0.5910    -0.0080 ca         1 WAY      -0.148600
      3 CF2         -3.0670     0.4320     0.0060 ca         1 WAY      -0.116000
      4 CH          -3.6860    -0.3650    -0.9460 ca         1 WAY      -0.122000
      5 CF1         -2.9250    -1.0030    -1.9040 ca         1 WAY      -0.116000
      6 C6          -1.5350    -0.8720    -1.9450 ca         1 WAY      -0.041300
      7 C10         -1.0940     1.5460     0.9880 c          1 WAY       0.685700
      8 O11         -0.3800     2.4830     0.6820 o          1 WAY      -0.567100
      9 N12         -1.5290     1.3190     2.2420 ns         1 WAY      -0.447400
     10 O13         -1.0780     2.0970     3.2620 oh         1 WAY      -0.390100
     11 CE          -0.8030    -1.6150    -3.0230 c3         1 WAY      -0.046800
     12 N20          0.4960     0.1080    -0.9940 nh         1 WAY      -0.677900
     13 S21          1.4180    -1.0290    -0.2230 sy         1 WAY       1.343200
     14 CD           1.0840     1.2530    -1.7000 c3         1 WAY       0.291100
     15 CK           0.1380     1.3470    -5.3600 ca         1 WAY      -0.256300
     16 CM           1.1900     0.6030    -5.8720 ca         1 WAY       0.403200
     17 N25          2.1690     0.1130    -5.1190 nb         1 WAY      -0.665000
     18 CJ           2.1200     0.3430    -3.8140 ca         1 WAY       0.414200
     19 C27          1.1080     1.0670    -3.1900 ca         1 WAY      -0.228600
     20 CI           0.1020     1.5820    -3.9950 ca         1 WAY      -0.075000
     21 C35          1.0900    -0.8290     1.4930 ca         1 WAY      -0.347500
     22 CC1          0.1860    -1.6700     2.1340 ca         1 WAY       0.013000
     23 CB1         -0.0710    -1.4950     3.4780 ca         1 WAY      -0.219000
     24 C38          0.5710    -0.4810     4.1950 ca         1 WAY       0.203100
     25 CB2          1.4900     0.3470     3.5460 ca         1 WAY      -0.219000
     26 CC2          1.7410     0.1740     2.1990 ca         1 WAY       0.013000
     27 O45          0.2490    -0.3760     5.4870 os         1 WAY      -0.312900
     28 CA           0.8070     0.6820     6.2470 c3         1 WAY       0.122700
     29 O50          2.8060    -0.6760    -0.4820 o          1 WAY      -0.613800
     30 O51          0.9420    -2.3530    -0.5890 o          1 WAY      -0.613800
     31 HF2         -3.6650     0.9480     0.7450 ha         1 WAY       0.138000
     32 HH          -4.7620    -0.4800    -0.9370 ha         1 WAY       0.139000
     33 HF1         -3.4120    -1.6220    -2.6480 ha         1 WAY       0.139000
     34 H14         -1.9110     0.4270     2.5230 hn         1 WAY       0.343500
     35 H15         -1.7780     2.7410     3.4340 ho         1 WAY       0.406000
     36 HE1         -1.0190    -2.6820    -2.9570 hc         1 WAY       0.054367
     37 HE2         -1.1380    -1.2760    -4.0040 hc         1 WAY       0.054367
     38 HE3          0.2710    -1.4910    -2.9800 hc         1 WAY       0.054367
     39 HD1          0.4960     2.1300    -1.4410 h1         1 WAY       0.081700
     40 HD2          2.0880     1.4290    -1.3180 h1         1 WAY       0.081700
     41 HL           1.2490     0.3990    -6.9360 h4         1 WAY       0.018100
     42 HJ           2.9280    -0.0750    -3.2210 h4         1 WAY       0.036100
     43 HI          -0.7050     2.1590    -3.5580 ha         1 WAY       0.139000
     44 HC1         -0.3170    -2.4610     1.5960 ha         1 WAY       0.156500
     45 HB1         -0.7750    -2.1440     3.9850 ha         1 WAY       0.146500
     46 HB2          2.0070     1.1370     4.0710 ha         1 WAY       0.146500
     47 HC2          2.4520     0.8260     1.7100 ha         1 WAY       0.156500
     48 HA1          0.3860     0.5970     7.2460 h1         1 WAY       0.047700
     49 HA2          1.8940     0.6040     6.3170 h1         1 WAY       0.047700
     50 HA3          0.5430     1.6570     5.8320 h1         1 WAY       0.047700
     51 HK          -0.6300     1.7300    -6.0170 ha         1 WAY       0.141000
@<TRIPOS>BOND
     1     1     2 ar  
     2     1     6 ar  
     3     1    12 1   
     4     2     3 ar  
     5     2     7 1   
     6     3     4 ar  
     7     3    31 1   
     8     4     5 ar  
     9     4    32 1   
    10     5     6 ar  
    11     5    33 1   
    12     6    11 1   
    13     7     8 2   
    14     7     9 1   
    15     9    10 1   
    16     9    34 1   
    17    10    35 1   
    18    11    36 1   
    19    11    37 1   
    20    11    38 1   
    21    12    13 1   
    22    12    14 1   
    23    13    21 1   
    24    13    29 2   
    25    13    30 2   
    26    14    19 1   
    27    14    39 1   
    28    14    40 1   
    29    15    16 ar  
    30    15    20 ar  
    31    15    51 1   
    32    16    17 ar  
    33    16    41 1   
    34    17    18 ar  
    35    18    19 ar  
    36    18    42 1   
    37    19    20 ar  
    38    20    43 1   
    39    21    22 ar  
    40    21    26 ar  
    41    22    23 ar  
    42    22    44 1   
    43    23    24 ar  
    44    23    45 1   
    45    24    25 ar  
    46    24    27 1   
    47    25    26 ar  
    48    25    46 1   
    49    26    47 1   
    50    27    28 1   
    51    28    48 1   
    52    28    49 1   
    53    28    50 1   
@<TRIPOS>SUBSTRUCTURE
     1 WAY         1 TEMP              0 ****  ****    0 ROOT
