@<TRIPOS>MOLECULE
WAZ
   47    49     1     0     0
SMALL
No Charge or Current Charge


@<TRIPOS>ATOM
      1 C1          -9.6460     9.3100    14.4020 c3         1 WAZ       0.144900
      2 O2         -11.0200     8.9380    14.6060 os         1 WAZ      -0.476000
      3 C3         -11.3010     8.3790    15.9110 c3         1 WAZ       0.139600
      4 C10        -14.2680     6.3320    14.8370 cc         1 WAZ       0.689800
      5 C12        -16.0300     5.3000    15.3050 cd         1 WAZ       0.033400
      6 C13        -17.1460     4.8890    16.0060 ce         1 WAZ      -0.094200
      7 C14        -17.7730     5.4540    17.2410 ca         1 WAZ      -0.048800
      8 C15        -18.6330     4.6390    18.0120 ca         1 WAZ      -0.099000
      9 C16        -19.2450     5.1400    19.1790 ca         1 WAZ      -0.063000
     10 C17        -19.0010     6.4640    19.5730 ca         1 WAZ       0.091400
     11 C19        -19.1040     8.3150    20.7580 cc         1 WAZ       0.391100
     12 C21        -18.1710     7.2610    18.8140 ca         1 WAZ      -0.180000
     13 C22        -17.5510     6.7900    17.6470 ca         1 WAZ      -0.040000
     14 C23        -15.7380     4.9650    13.8900 c          1 WAZ       0.542200
     15 C4         -12.8180     8.0230    16.0120 c3         1 WAZ       0.258500
     16 C5         -13.7510     9.2710    16.0760 c3         1 WAZ      -0.088400
     17 C6         -14.1410     9.7390    17.5090 c3         1 WAZ      -0.063700
     18 C7         -15.1880    10.8750    17.4510 c3         1 WAZ      -0.088600
     19 C8         -12.9310    10.1540    18.3770 c3         1 WAZ      -0.088600
     20 N11        -15.0810     6.1600    15.8620 nd         1 WAZ      -0.705300
     21 N18        -19.5550     7.0510    20.7050 nd         1 WAZ      -0.524100
     22 N25        -14.6100     5.6680    13.7210 ns         1 WAZ      -0.479400
     23 N9         -13.2040     7.1580    14.8810 nu         1 WAZ      -0.895400
     24 O24        -16.3290     4.2690    13.0780 o          1 WAZ      -0.506000
     25 S20        -18.0070     8.8780    19.4760 ss         1 WAZ      -0.000200
     26 H1          -9.5090     9.7240    13.3940 h1         1 WAZ       0.034367
     27 H2          -9.3360    10.0720    15.1290 h1         1 WAZ       0.034367
     28 H3          -8.9850     8.4400    14.5070 h1         1 WAZ       0.034367
     29 H4         -10.7150     7.4630    16.0660 h1         1 WAZ       0.040200
     30 H5         -11.0270     9.0870    16.7020 h1         1 WAZ       0.040200
     31 H6         -17.7660     4.1590    15.4830 ha         1 WAZ       0.193000
     32 H7         -18.8220     3.6110    17.7100 ha         1 WAZ       0.118000
     33 H8         -19.9010     4.5050    19.7700 ha         1 WAZ       0.132000
     34 H9         -19.3720     9.0140    21.5390 h5         1 WAZ       0.056800
     35 H10        -16.9180     7.4580    17.0680 ha         1 WAZ       0.159000
     36 H11        -12.9530     7.4560    16.9450 h1         1 WAZ       0.079700
     37 H12        -13.2950    10.1020    15.5250 hc         1 WAZ       0.057700
     38 H13        -14.6850     9.0440    15.5470 hc         1 WAZ       0.057700
     39 H14        -14.6250     8.8910    18.0110 hc         1 WAZ       0.054700
     40 H15        -15.5090    11.1600    18.4600 hc         1 WAZ       0.033700
     41 H16        -14.7740    11.7640    16.9590 hc         1 WAZ       0.033700
     42 H17        -16.0780    10.5560    16.8950 hc         1 WAZ       0.033700
     43 H18        -13.2660    10.5460    19.3460 hc         1 WAZ       0.033700
     44 H19        -12.2800     9.2970    18.5820 hc         1 WAZ       0.033700
     45 H20        -12.3410    10.9340    17.8810 hc         1 WAZ       0.033700
     46 H21        -14.1090     5.6970    12.8480 hn         1 WAZ       0.344500
     47 H22        -12.7090     7.2900    14.0040 hn         1 WAZ       0.511000
@<TRIPOS>BOND
     1     1     2 1   
     2     1    26 1   
     3     1    27 1   
     4     1    28 1   
     5     2     3 1   
     6     3    15 1   
     7     3    29 1   
     8     3    30 1   
     9     4    20 2   
    10     4    22 1   
    11     4    23 1   
    12     5     6 2   
    13     5    14 1   
    14     5    20 1   
    15     6     7 1   
    16     6    31 1   
    17     7     8 ar  
    18     7    13 ar  
    19     8     9 ar  
    20     8    32 1   
    21     9    10 ar  
    22     9    33 1   
    23    10    12 ar  
    24    10    21 1   
    25    11    21 2   
    26    11    25 1   
    27    11    34 1   
    28    12    13 ar  
    29    12    25 1   
    30    13    35 1   
    31    14    22 1   
    32    14    24 2   
    33    15    16 1   
    34    15    23 1   
    35    15    36 1   
    36    16    17 1   
    37    16    37 1   
    38    16    38 1   
    39    17    18 1   
    40    17    19 1   
    41    17    39 1   
    42    18    40 1   
    43    18    41 1   
    44    18    42 1   
    45    19    43 1   
    46    19    44 1   
    47    19    45 1   
    48    22    46 1   
    49    23    47 1   
@<TRIPOS>SUBSTRUCTURE
     1 WAZ         1 TEMP              0 ****  ****    0 ROOT
