@<TRIPOS>MOLECULE
WAZ
   47    49     1     0     0
SMALL
abcg2


@<TRIPOS>ATOM
      1 C1          -9.7330     9.3860    14.4040 c3         1 WAZ       0.144900
      2 O2         -11.0900     9.0200    14.5990 os         1 WAZ      -0.476000
      3 C3         -11.3230     8.4490    15.8770 c3         1 WAZ       0.139600
      4 C10        -14.1580     6.3710    14.8670 cc         1 WAZ       0.689800
      5 C12        -16.0190     5.4060    15.4080 cd         1 WAZ       0.033400
      6 C13        -17.1770     5.0600    16.0150 ce         1 WAZ      -0.094200
      7 C14        -17.7450     5.6020    17.2350 ca         1 WAZ      -0.048800
      8 C15        -18.9650     5.0580    17.7110 ca         1 WAZ      -0.099000
      9 C16        -19.5830     5.5310    18.8500 ca         1 WAZ      -0.063000
     10 C17        -18.9920     6.5860    19.5550 ca         1 WAZ       0.091400
     11 C19        -18.7070     8.1250    21.1060 cc         1 WAZ       0.391100
     12 C21        -17.7780     7.1320    19.0820 ca         1 WAZ      -0.180000
     13 C22        -17.1490     6.6550    17.9430 ca         1 WAZ      -0.040000
     14 C23        -15.5920     4.8200    14.0970 c          1 WAZ       0.542200
     15 C4         -12.7910     8.0670    15.9770 c3         1 WAZ       0.258500
     16 C5         -13.7500     9.2770    15.9880 c3         1 WAZ      -0.088400
     17 C6         -14.2870     9.6370    17.3790 c3         1 WAZ      -0.063700
     18 C7         -15.3990    10.6800    17.2600 c3         1 WAZ      -0.088600
     19 C8         -13.1940    10.1180    18.3350 c3         1 WAZ      -0.088600
     20 N11        -15.0720     6.3380    15.8110 nd         1 WAZ      -0.705300
     21 N18        -19.4880     7.1750    20.7050 nd         1 WAZ      -0.524100
     22 N25        -14.4250     5.5050    13.8150 ns         1 WAZ      -0.479400
     23 N9         -13.0690     7.1340    14.8820 nu         1 WAZ      -0.895400
     24 O24        -16.1080     3.9590    13.4040 o          1 WAZ      -0.506000
     25 S20        -17.2830     8.4230    20.1420 ss         1 WAZ      -0.000200
     26 H1          -9.6500     9.8030    13.4020 h1         1 WAZ       0.034367
     27 H2          -9.4210    10.1370    15.1380 h1         1 WAZ       0.034367
     28 H3          -9.0750     8.5140    14.4910 h1         1 WAZ       0.034367
     29 H4         -10.6920     7.5600    16.0060 h1         1 WAZ       0.040200
     30 H5         -11.0730     9.1650    16.6660 h1         1 WAZ       0.040200
     31 H6         -17.7590     4.2950    15.5140 ha         1 WAZ       0.193000
     32 H7         -19.4180     4.2470    17.1560 ha         1 WAZ       0.118000
     33 H8         -20.5130     5.1030    19.2000 ha         1 WAZ       0.132000
     34 H9         -18.8930     8.7270    21.9850 h5         1 WAZ       0.056800
     35 H10        -16.2220     7.0790    17.5920 ha         1 WAZ       0.159000
     36 H11        -12.9230     7.5110    16.9070 h1         1 WAZ       0.079700
     37 H12        -13.2490    10.1450    15.5500 hc         1 WAZ       0.057700
     38 H13        -14.5990     9.0470    15.3450 hc         1 WAZ       0.057700
     39 H14        -14.7260     8.7270    17.8030 hc         1 WAZ       0.054700
     40 H15        -15.8160    10.9200    18.2400 hc         1 WAZ       0.033700
     41 H16        -15.0150    11.6050    16.8200 hc         1 WAZ       0.033700
     42 H17        -16.2110    10.3160    16.6260 hc         1 WAZ       0.033700
     43 H18        -13.6230    10.3790    19.3060 hc         1 WAZ       0.033700
     44 H19        -12.4330     9.3540    18.5060 hc         1 WAZ       0.033700
     45 H20        -12.6960    11.0060    17.9360 hc         1 WAZ       0.033700
     46 H21        -13.8380     5.3450    13.0100 hn         1 WAZ       0.344500
     47 H22        -12.4950     7.1940    14.0550 hn         1 WAZ       0.511000
@<TRIPOS>BOND
     1     1     2 1   
     2     1    26 1   
     3     1    27 1   
     4     1    28 1   
     5     2     3 1   
     6     3    15 1   
     7     3    29 1   
     8     3    30 1   
     9     4    20 2   
    10     4    22 1   
    11     4    23 1   
    12     5     6 2   
    13     5    14 1   
    14     5    20 1   
    15     6     7 1   
    16     6    31 1   
    17     7     8 ar  
    18     7    13 ar  
    19     8     9 ar  
    20     8    32 1   
    21     9    10 ar  
    22     9    33 1   
    23    10    12 ar  
    24    10    21 1   
    25    11    21 2   
    26    11    25 1   
    27    11    34 1   
    28    12    13 ar  
    29    12    25 1   
    30    13    35 1   
    31    14    22 1   
    32    14    24 2   
    33    15    16 1   
    34    15    23 1   
    35    15    36 1   
    36    16    17 1   
    37    16    37 1   
    38    16    38 1   
    39    17    18 1   
    40    17    19 1   
    41    17    39 1   
    42    18    40 1   
    43    18    41 1   
    44    18    42 1   
    45    19    43 1   
    46    19    44 1   
    47    19    45 1   
    48    22    46 1   
    49    23    47 1   
@<TRIPOS>SUBSTRUCTURE
     1 WAZ         1 TEMP              0 ****  ****    0 ROOT
