@<TRIPOS>MOLECULE
WB1
   21    22     1     0     0
SMALL
No Charge or Current Charge


@<TRIPOS>ATOM
      1 C10          9.8410     5.6770    17.8980 ca         1 WB1      -0.146000
      2 C01          9.7470     7.6040    19.5550 c3         1 WB1      -0.031800
      3 C02         10.0690     6.1590    19.2060 ca         1 WB1      -0.087300
      4 C03         10.6060     5.2920    20.1880 ca         1 WB1      -0.179000
      5 C04         10.9120     3.9500    19.8760 ca         1 WB1      -0.024000
      6 C05         10.6700     3.5050    18.5660 ca         1 WB1      -0.065800
      7 C06         10.8700     2.2210    17.9380 cc         1 WB1      -0.163400
      8 C07         10.4530     2.3610    16.6130 cd         1 WB1      -0.171100
      9 C09         10.1530     4.3410    17.6120 ca         1 WB1      -0.073200
     10 C11         11.4090     0.9610    18.5300 c          1 WB1       0.733200
     11 N08         10.0020     3.6860    16.4020 na         1 WB1      -0.248700
     12 O12         11.7470     0.9450    19.7040 o          1 WB1      -0.732000
     13 O13         11.4970    -0.0270    17.8130 o          1 WB1      -0.732000
     14 H101         9.4330     6.3270    17.1270 ha         1 WB1       0.087000
     15 H011         9.4340     7.7010    20.6010 hc         1 WB1       0.023700
     16 H013        10.6240     8.2460    19.4060 hc         1 WB1       0.023700
     17 H012         8.9350     7.9950    18.9310 hc         1 WB1       0.023700
     18 H031        10.7870     5.6590    21.1960 ha         1 WB1       0.088000
     19 H041        11.3240     3.2880    20.6330 ha         1 WB1       0.143000
     20 H071        10.4470     1.6170    15.8200 h4         1 WB1       0.213000
     21 H081         9.6410     4.0790    15.5370 hn         1 WB1       0.321000
@<TRIPOS>BOND
     1     1     3 ar  
     2     1     9 ar  
     3     1    14 1   
     4     2     3 1   
     5     2    15 1   
     6     2    16 1   
     7     2    17 1   
     8     3     4 ar  
     9     4     5 ar  
    10     4    18 1   
    11     5     6 ar  
    12     5    19 1   
    13     6     7 1   
    14     6     9 ar  
    15     7     8 2   
    16     7    10 1   
    17     8    11 1   
    18     8    20 1   
    19     9    11 1   
    20    10    12 1   
    21    10    13 1   
    22    11    21 1   
@<TRIPOS>SUBSTRUCTURE
     1 WB1         1 TEMP              0 ****  ****    0 ROOT
