@<TRIPOS>MOLECULE
WB1
   21    22     1     0     0
SMALL
abcg2


@<TRIPOS>ATOM
      1 C10          9.8080     5.6820    17.9100 ca         1 WB1      -0.146000
      2 C01          9.7570     7.5900    19.5430 c3         1 WB1      -0.031800
      3 C02         10.0630     6.1640    19.1820 ca         1 WB1      -0.087300
      4 C03         10.6250     5.3020    20.1470 ca         1 WB1      -0.179000
      5 C04         10.9340     3.9870    19.8680 ca         1 WB1      -0.024000
      6 C05         10.6870     3.4800    18.5850 ca         1 WB1      -0.065800
      7 C06         10.8730     2.2080    17.9390 cc         1 WB1      -0.163400
      8 C07         10.4200     2.3710    16.6570 cd         1 WB1      -0.171100
      9 C09         10.1220     4.3520    17.6300 ca         1 WB1      -0.073200
     10 C11         11.4460     0.9410    18.4980 c          1 WB1       0.733200
     11 N08          9.9710     3.6440    16.4710 na         1 WB1      -0.248700
     12 O12         11.8250     0.9700    19.6880 o          1 WB1      -0.732000
     13 O13         11.4970    -0.0370    17.7220 o          1 WB1      -0.732000
     14 H101         9.3770     6.3240    17.1510 ha         1 WB1       0.087000
     15 H011         9.0870     7.6490    20.4030 hc         1 WB1       0.023700
     16 H013        10.6630     8.1360    19.8110 hc         1 WB1       0.023700
     17 H012         9.2840     8.1210    18.7170 hc         1 WB1       0.023700
     18 H031        10.8180     5.6910    21.1400 ha         1 WB1       0.088000
     19 H041        11.3630     3.3510    20.6290 ha         1 WB1       0.143000
     20 H071        10.3850     1.6570    15.8490 h4         1 WB1       0.213000
     21 H081         9.5940     4.0050    15.6100 hn         1 WB1       0.321000
@<TRIPOS>BOND
     1     1     3 ar  
     2     1     9 ar  
     3     1    14 1   
     4     2     3 1   
     5     2    15 1   
     6     2    16 1   
     7     2    17 1   
     8     3     4 ar  
     9     4     5 ar  
    10     4    18 1   
    11     5     6 ar  
    12     5    19 1   
    13     6     7 1   
    14     6     9 ar  
    15     7     8 2   
    16     7    10 1   
    17     8    11 1   
    18     8    20 1   
    19     9    11 1   
    20    10    12 1   
    21    10    13 1   
    22    11    21 1   
@<TRIPOS>SUBSTRUCTURE
     1 WB1         1 TEMP              0 ****  ****    0 ROOT
