@<TRIPOS>MOLECULE
WB2
  118   124     1     0     0
SMALL
abcg2


@<TRIPOS>ATOM
      1 C01        122.4470   122.0200    99.3690 c3         1 WB2      -0.080350
      2 C02        122.3390   123.3350   100.1490 c3         1 WB2      -0.141200
      3 C03        122.2030   123.0780   101.6430 c3         1 WB2      -0.080350
      4 C04        121.1530   124.1160    99.6120 c          1 WB2       0.608100
      5 C07        122.4950   124.9800    97.6880 ca         1 WB2      -0.053000
      6 C08        122.5140   124.5130    96.3760 ca         1 WB2      -0.155000
      7 C09        123.6320   124.7020    95.5860 ca         1 WB2      -0.056750
      8 C10        123.6080   125.6490    98.1870 ca         1 WB2      -0.155000
      9 C11        124.7350   125.8130    97.3980 ca         1 WB2      -0.056750
     10 C12        124.7640   125.3380    96.0890 ca         1 WB2      -0.122100
     11 C13        125.9310   125.5060    95.1710 c          1 WB2       0.603200
     12 C16        128.2840   125.8280    94.8810 cy         1 WB2      -0.010100
     13 C17        128.4900   124.3890    94.2960 c          1 WB2       0.733000
     14 C20        128.3930   127.0110    93.8730 cy         1 WB2      -0.051400
     15 C21        127.2600   127.9740    93.7050 ca         1 WB2       0.039700
     16 C22        126.6470   128.6330    94.7720 ca         1 WB2      -0.171000
     17 C23        125.6130   129.5330    94.5690 ca         1 WB2       0.097100
     18 C25        125.7020   131.2420    96.1660 c3         1 WB2       0.150900
     19 C26        125.1830   129.8000    93.2750 ca         1 WB2       0.029100
     20 C27        125.7660   129.1590    92.1990 ca         1 WB2      -0.091500
     21 C28        126.7990   128.2610    92.4210 ca         1 WB2      -0.088500
     22 C30        122.9430   130.4310    93.4020 c          1 WB2       0.632200
     23 C32        122.0520   131.5800    93.3080 cc         1 WB2      -0.264600
     24 C33        122.3260   132.8870    93.0080 cd         1 WB2      -0.073000
     25 C34        121.1690   133.6980    93.0410 cd         1 WB2      -0.150000
     26 C35        120.0470   132.9890    93.3640 cc         1 WB2      -0.272500
     27 C37        129.6860   127.5240    94.5790 cy         1 WB2      -0.010100
     28 C38        131.0130   127.5130    93.7540 c          1 WB2       0.733000
     29 C44        129.4920   131.1380    95.6340 ca         1 WB2      -0.122100
     30 C45        129.0400   132.3510    95.1260 ca         1 WB2      -0.056750
     31 C46        128.8730   133.4660    95.9310 ca         1 WB2      -0.155000
     32 C47        129.1790   133.3910    97.2920 ca         1 WB2      -0.053000
     33 C48        129.6530   132.1800    97.8050 ca         1 WB2      -0.155000
     34 C49        129.8060   131.0750    96.9910 ca         1 WB2      -0.056750
     35 C51        128.6280   135.7230    97.9780 c          1 WB2       0.608100
     36 C53        128.6280   136.6030    99.2170 c3         1 WB2      -0.141200
     37 C54        127.1880   136.9400    99.6000 c3         1 WB2      -0.080350
     38 C55        129.4420   137.8690    98.9620 c3         1 WB2      -0.080350
     39 C56        129.6210   126.2880    95.5460 cy         1 WB2      -0.051400
     40 C57        129.8130   126.5430    97.0130 ca         1 WB2       0.039700
     41 C58        128.8920   127.2350    97.8120 ca         1 WB2      -0.171000
     42 C59        129.2080   127.6250    99.1100 ca         1 WB2       0.097100
     43 C61        127.1840   128.8220    99.4060 c3         1 WB2       0.150900
     44 C62        130.4650   127.2950    99.6210 ca         1 WB2       0.029100
     45 C63        131.3650   126.5770    98.8670 ca         1 WB2      -0.091500
     46 C64        131.0420   126.2040    97.5700 ca         1 WB2      -0.088500
     47 C66        131.1000   128.9650   101.1090 c          1 WB2       0.632200
     48 C68        131.3690   129.2420   102.5130 cc         1 WB2      -0.264600
     49 C69        131.3340   128.4050   103.5980 cd         1 WB2      -0.073000
     50 C70        131.6720   129.0710   104.7970 cd         1 WB2      -0.150000
     51 C71        131.9540   130.3930   104.5960 cc         1 WB2      -0.272500
     52 N06        121.3250   124.8200    98.4580 ns         1 WB2      -0.151500
     53 N15        127.1170   125.8390    95.7270 ns         1 WB2      -0.445900
     54 N41        129.5670   128.7700    95.2820 ns         1 WB2      -0.445900
     55 N50        129.0600   134.4500    98.1910 ns         1 WB2      -0.151500
     56 O05        120.0560   124.0730   100.1400 o          1 WB2      -0.608600
     57 O14        125.7930   125.3640    93.9660 o          1 WB2      -0.583600
     58 O18        128.1580   123.4680    95.0620 o          1 WB2      -0.707250
     59 O19        129.0250   124.2870    93.1790 o          1 WB2      -0.707250
     60 O24        124.9920   130.1420    95.6140 os         1 WB2      -0.360600
     61 O29        124.2020   130.7500    93.0710 os         1 WB2      -0.330200
     62 O31        122.5880   129.3270    93.7230 o          1 WB2      -0.462000
     63 O39        132.0230   127.8080    94.4190 o          1 WB2      -0.707250
     64 O40        130.9620   127.1750    92.5610 o          1 WB2      -0.707250
     65 O43        129.7550   130.1420    93.4970 o          1 WB2      -0.583600
     66 O52        128.2570   136.1400    96.8960 o          1 WB2      -0.608600
     67 O60        128.4050   128.3260    99.9190 os         1 WB2      -0.360600
     68 O65        130.7910   127.6740   100.9060 os         1 WB2      -0.330200
     69 O67        131.1630   129.7900   100.2350 o          1 WB2      -0.462000
     70 S36        120.3800   131.3400    93.6300 ss         1 WB2       0.288500
     71 S72        131.8150   130.8420   102.9590 ss         1 WB2       0.288500
     72 H1         123.2870   121.4370    99.7480 hc         1 WB2       0.038450
     73 H2         121.5440   121.4200    99.4860 hc         1 WB2       0.038450
     74 H3         122.6110   122.1820    98.3040 hc         1 WB2       0.038450
     75 H4         123.2590   123.8970    99.9840 hc         1 WB2       0.062200
     76 H5         122.1170   124.0050   102.2100 hc         1 WB2       0.038450
     77 H6         121.3340   122.4610   101.8680 hc         1 WB2       0.038450
     78 H7         123.0870   122.5510   102.0030 hc         1 WB2       0.038450
     79 H8         121.6490   123.9980    95.9790 ha         1 WB2       0.113750
     80 H9         123.6290   124.3380    94.5680 ha         1 WB2       0.135250
     81 H10        123.5880   126.0600    99.1880 ha         1 WB2       0.113750
     82 H11        125.5780   126.3520    97.8120 ha         1 WB2       0.135250
     83 H12        128.6600   126.6140    92.8970 hc         1 WB2       0.125700
     84 H13        126.9450   128.4460    95.7920 ha         1 WB2       0.120500
     85 H14        125.0940   131.6390    96.9770 h1         1 WB2       0.033867
     86 H15        126.6730   130.9390    96.5680 h1         1 WB2       0.033867
     87 H16        125.8630   132.0290    95.4250 h1         1 WB2       0.033867
     88 H17        125.4220   129.3670    91.1940 ha         1 WB2       0.109500
     89 H18        127.2530   127.7660    91.5710 ha         1 WB2       0.141500
     90 H19        123.3150   133.2570    92.7760 ha         1 WB2       0.153000
     91 H20        121.1660   134.7590    92.8370 ha         1 WB2       0.126000
     92 H21        119.0380   133.3610    93.4580 h4         1 WB2       0.138500
     93 H22        128.7990   132.4320    94.0740 ha         1 WB2       0.135250
     94 H23        128.5080   134.3800    95.4940 ha         1 WB2       0.113750
     95 H24        129.9170   132.1040    98.8530 ha         1 WB2       0.113750
     96 H25        130.2050   130.1740    97.4400 ha         1 WB2       0.135250
     97 H26        129.0860   136.0630   100.0520 hc         1 WB2       0.062200
     98 H27        127.1770   137.5540   100.5010 hc         1 WB2       0.038450
     99 H28        126.6930   137.5010    98.8070 hc         1 WB2       0.038450
    100 H29        126.6020   136.0430    99.8020 hc         1 WB2       0.038450
    101 H30        130.4770   137.6410    98.7030 hc         1 WB2       0.038450
    102 H31        129.0100   138.4580    98.1530 hc         1 WB2       0.038450
    103 H32        129.4510   138.4880    99.8590 hc         1 WB2       0.038450
    104 H33        130.4040   125.5840    95.2620 hc         1 WB2       0.125700
    105 H34        127.9230   127.5000    97.4110 ha         1 WB2       0.120500
    106 H35        126.7410   129.4230   100.1950 h1         1 WB2       0.033867
    107 H36        127.3390   129.4530    98.5250 h1         1 WB2       0.033867
    108 H37        126.4930   128.0160    99.1500 h1         1 WB2       0.033867
    109 H38        132.3320   126.3270    99.2860 ha         1 WB2       0.109500
    110 H39        131.7720   125.6680    96.9780 ha         1 WB2       0.141500
    111 H40        131.0780   127.3570   103.5410 ha         1 WB2       0.153000
    112 H41        131.7040   128.5950   105.7660 ha         1 WB2       0.126000
    113 H42        132.2370   131.1250   105.3370 h4         1 WB2       0.138500
    114 H43        120.4670   125.1530    98.0360 hn         1 WB2       0.145500
    115 H44        127.2520   125.5880    96.6940 hn         1 WB2       0.293500
    116 H45        129.3950   128.7360    96.2740 hn         1 WB2       0.293500
    117 H46        129.3390   134.2330    99.1360 hn         1 WB2       0.145500
    118 C42        129.6250   129.9770    94.7030 c          1 WB2       0.603200
@<TRIPOS>BOND
     1     1     2 1   
     2     1    72 1   
     3     1    73 1   
     4     1    74 1   
     5     2     3 1   
     6     2     4 1   
     7     2    75 1   
     8     3    76 1   
     9     3    77 1   
    10     3    78 1   
    11     4    52 1   
    12     4    56 2   
    13     5     6 ar  
    14     5     8 ar  
    15     5    52 1   
    16     6     7 ar  
    17     6    79 1   
    18     7    10 ar  
    19     7    80 1   
    20     8     9 ar  
    21     8    81 1   
    22     9    10 ar  
    23     9    82 1   
    24    10    11 1   
    25    11    53 1   
    26    11    57 2   
    27    12    13 1   
    28    12    14 1   
    29    12    39 1   
    30    12    53 1   
    31    13    58 1   
    32    13    59 1   
    33    14    15 1   
    34    14    27 1   
    35    14    83 1   
    36    15    16 ar  
    37    15    21 ar  
    38    16    17 ar  
    39    16    84 1   
    40    17    19 ar  
    41    17    60 1   
    42    18    60 1   
    43    18    85 1   
    44    18    86 1   
    45    18    87 1   
    46    19    20 ar  
    47    19    61 1   
    48    20    21 ar  
    49    20    88 1   
    50    21    89 1   
    51    22    23 1   
    52    22    61 1   
    53    22    62 2   
    54    23    24 2   
    55    23    70 1   
    56    24    25 1   
    57    24    90 1   
    58    25    26 2   
    59    25    91 1   
    60    26    70 1   
    61    26    92 1   
    62    27    28 1   
    63    27    39 1   
    64    27    54 1   
    65    28    63 1   
    66    28    64 1   
    67    29    30 ar  
    68    29    34 ar  
    69    29   118 1   
    70    30    31 ar  
    71    30    93 1   
    72    31    32 ar  
    73    31    94 1   
    74    32    33 ar  
    75    32    55 1   
    76    33    34 ar  
    77    33    95 1   
    78    34    96 1   
    79    35    36 1   
    80    35    55 1   
    81    35    66 2   
    82    36    37 1   
    83    36    38 1   
    84    36    97 1   
    85    37    98 1   
    86    37    99 1   
    87    37   100 1   
    88    38   101 1   
    89    38   102 1   
    90    38   103 1   
    91    39    40 1   
    92    39   104 1   
    93    40    41 ar  
    94    40    46 ar  
    95    41    42 ar  
    96    41   105 1   
    97    42    44 ar  
    98    42    67 1   
    99    43    67 1   
   100    43   106 1   
   101    43   107 1   
   102    43   108 1   
   103    44    45 ar  
   104    44    68 1   
   105    45    46 ar  
   106    45   109 1   
   107    46   110 1   
   108    47    48 1   
   109    47    68 1   
   110    47    69 2   
   111    48    49 2   
   112    48    71 1   
   113    49    50 1   
   114    49   111 1   
   115    50    51 2   
   116    50   112 1   
   117    51    71 1   
   118    51   113 1   
   119    52   114 1   
   120    53   115 1   
   121    54   116 1   
   122    54   118 1   
   123    55   117 1   
   124    65   118 2   
@<TRIPOS>SUBSTRUCTURE
     1 WB2         1 TEMP              0 ****  ****    0 ROOT
