@<TRIPOS>MOLECULE
WB2
  118   124     1     0     0
SMALL
No Charge or Current Charge


@<TRIPOS>ATOM
      1 C01        121.8620   123.1140   101.1570 c3         1 WB2      -0.080350
      2 C02        122.7380   124.3430   100.8140 c3         1 WB2      -0.141200
      3 C03        123.6420   124.7420   102.0080 c3         1 WB2      -0.080350
      4 C04        121.8620   125.5350   100.3420 c          1 WB2       0.608100
      5 C07        123.0410   125.8680    98.0890 ca         1 WB2      -0.053000
      6 C08        122.7250   125.7730    96.7250 ca         1 WB2      -0.155000
      7 C09        123.7420   125.6980    95.7580 ca         1 WB2      -0.056750
      8 C10        124.3930   125.9210    98.4750 ca         1 WB2      -0.155000
      9 C11        125.4150   125.8460    97.5140 ca         1 WB2      -0.056750
     10 C12        125.1020   125.7340    96.1370 ca         1 WB2      -0.122100
     11 C13        126.1720   125.6860    95.0680 c          1 WB2       0.603200
     12 C16        128.6010   126.1180    94.5990 cy         1 WB2      -0.010100
     13 C17        129.1210   124.7950    93.7800 c          1 WB2       0.733000
     14 C20        128.7170   127.2460    93.4620 cy         1 WB2      -0.051400
     15 C21        127.4410   128.0740    93.1960 ca         1 WB2       0.039700
     16 C22        126.7270   128.7070    94.2390 ca         1 WB2      -0.171000
     17 C23        125.5450   129.4320    93.9770 ca         1 WB2       0.097100
     18 C25        125.2220   129.9830    96.3690 c3         1 WB2       0.150900
     19 C26        125.0740   129.5240    92.6490 ca         1 WB2       0.029100
     20 C27        125.7880   128.9190    91.6030 ca         1 WB2      -0.091500
     21 C28        126.9610   128.1960    91.8750 ca         1 WB2      -0.088500
     22 C30        122.6760   129.8040    92.7660 c          1 WB2       0.632200
     23 C32        121.6020   130.7720    92.4740 cc         1 WB2      -0.264600
     24 C33        121.7640   131.9920    91.8610 cd         1 WB2      -0.073000
     25 C34        120.5410   132.7030    91.7200 cd         1 WB2      -0.150000
     26 C35        119.4540   132.0300    92.2220 cc         1 WB2      -0.272500
     27 C37        129.8440   127.9430    94.3810 cy         1 WB2      -0.010100
     28 C38        131.1250   127.8050    93.3710 c          1 WB2       0.733000
     29 C44        129.2580   131.5580    95.5650 ca         1 WB2      -0.122100
     30 C45        128.8680   132.8280    95.0890 ca         1 WB2      -0.056750
     31 C46        128.6330   133.8930    95.9770 ca         1 WB2      -0.155000
     32 C47        128.7870   133.7130    97.3670 ca         1 WB2      -0.053000
     33 C48        129.1840   132.4520    97.8440 ca         1 WB2      -0.155000
     34 C49        129.4200   131.3850    96.9610 ca         1 WB2      -0.056750
     35 C51        128.1790   136.0710    98.2120 c          1 WB2       0.608100
     36 C53        128.0650   136.8130    99.5640 c3         1 WB2      -0.141200
     37 C54        126.6140   137.2820    99.8270 c3         1 WB2      -0.080350
     38 C55        129.0760   137.9820    99.6510 c3         1 WB2      -0.080350
     39 C56        130.0490   126.5360    95.1370 cy         1 WB2      -0.051400
     40 C57        130.2120   126.6100    96.6700 ca         1 WB2       0.039700
     41 C58        129.3070   127.3210    97.4970 ca         1 WB2      -0.171000
     42 C59        129.4910   127.3730    98.8970 ca         1 WB2       0.097100
     43 C61        127.4710   128.7750    99.2390 c3         1 WB2       0.150900
     44 C62        130.5970   126.7110    99.4730 ca         1 WB2       0.029100
     45 C63        131.4890   125.9930    98.6640 ca         1 WB2      -0.091500
     46 C64        131.3000   125.9460    97.2730 ca         1 WB2      -0.088500
     47 C66        131.1290   127.8830   101.5210 c          1 WB2       0.632200
     48 C68        131.1560   127.7110   102.9840 cc         1 WB2      -0.264600
     49 C69        130.8850   126.5450   103.6630 cd         1 WB2      -0.073000
     50 C70        130.9910   126.6920   105.0720 cd         1 WB2      -0.150000
     51 C71        131.3380   127.9600   105.4670 cc         1 WB2      -0.272500
     52 N06        121.9810   125.9670    99.0260 ns         1 WB2      -0.151500
     53 N15        127.4520   126.0030    95.4820 ns         1 WB2      -0.445900
     54 N41        129.6540   129.1740    95.1300 ns         1 WB2      -0.445900
     55 N50        128.5660   134.7390    98.3270 ns         1 WB2      -0.151500
     56 O05        121.0190   126.0340   101.0800 o          1 WB2      -0.608600
     57 O14        125.9190   125.3990    93.9050 o          1 WB2      -0.583600
     58 O18        128.7720   123.6880    94.1680 o          1 WB2      -0.707250
     59 O19        129.8870   124.7810    92.8210 o          1 WB2      -0.707250
     60 O24        124.8360   130.0640    94.9850 os         1 WB2      -0.360600
     61 O29        123.9190   130.2120    92.3530 os         1 WB2      -0.330200
     62 O31        122.4690   128.7260    93.3070 o          1 WB2      -0.462000
     63 O39        132.2590   127.6520    93.8140 o          1 WB2      -0.707250
     64 O40        131.0700   128.0220    92.1650 o          1 WB2      -0.707250
     65 O43        129.4940   130.6150    93.3700 o          1 WB2      -0.583600
     66 O52        127.9440   136.6340    97.1480 o          1 WB2      -0.608600
     67 O60        128.6100   128.0460    99.7290 os         1 WB2      -0.360600
     68 O65        130.8110   126.7390   100.8320 os         1 WB2      -0.330200
     69 O67        131.3870   128.9460   100.9720 o          1 WB2      -0.462000
     70 S36        119.9250   130.4700    92.8960 ss         1 WB2       0.288500
     71 S72        131.5480   129.0270   104.0790 ss         1 WB2       0.288500
     72 H1         122.4880   122.2570   101.4350 hc         1 WB2       0.038450
     73 H2         121.1880   123.3310   101.9950 hc         1 WB2       0.038450
     74 H3         121.2520   122.8220   100.2940 hc         1 WB2       0.038450
     75 H4         123.3930   124.0340    99.9940 hc         1 WB2       0.062200
     76 H5         124.2590   125.6140   101.7620 hc         1 WB2       0.038450
     77 H6         123.0380   124.9940   102.8880 hc         1 WB2       0.038450
     78 H7         124.3130   123.9170   102.2780 hc         1 WB2       0.038450
     79 H8         121.6850   125.7530    96.4070 ha         1 WB2       0.113750
     80 H9         123.4690   125.6280    94.7070 ha         1 WB2       0.135250
     81 H10        124.6660   126.0360    99.5200 ha         1 WB2       0.113750
     82 H11        126.4450   125.8700    97.8590 ha         1 WB2       0.135250
     83 H12        129.0500   126.8830    92.4900 hc         1 WB2       0.125700
     84 H13        127.0940   128.6210    95.2530 ha         1 WB2       0.120500
     85 H14        124.5170   130.5460    96.9930 h1         1 WB2       0.033867
     86 H15        125.2230   128.9410    96.7120 h1         1 WB2       0.033867
     87 H16        126.2230   130.4080    96.5200 h1         1 WB2       0.033867
     88 H17        125.4260   129.0000    90.5820 ha         1 WB2       0.109500
     89 H18        127.4930   127.7240    91.0530 ha         1 WB2       0.141500
     90 H19        122.7200   132.3790    91.5190 ha         1 WB2       0.153000
     91 H20        120.4740   133.6840    91.2590 ha         1 WB2       0.126000
     92 H21        118.4150   132.3300    92.2480 h4         1 WB2       0.138500
     93 H22        128.7350   132.9940    94.0220 ha         1 WB2       0.135250
     94 H23        128.3300   134.8470    95.5590 ha         1 WB2       0.113750
     95 H24        129.3150   132.2930    98.9120 ha         1 WB2       0.113750
     96 H25        129.7410   130.4360    97.3820 ha         1 WB2       0.135250
     97 H26        128.3230   136.1040   100.3610 hc         1 WB2       0.062200
     98 H27        126.5310   137.7510   100.8160 hc         1 WB2       0.038450
     99 H28        126.2940   138.0130    99.0740 hc         1 WB2       0.038450
    100 H29        125.9210   136.4320    99.7960 hc         1 WB2       0.038450
    101 H30        130.0990   137.6200    99.4970 hc         1 WB2       0.038450
    102 H31        128.8630   138.7430    98.8910 hc         1 WB2       0.038450
    103 H32        129.0300   138.4610   100.6370 hc         1 WB2       0.038450
    104 H33        130.8710   125.9190    94.7540 hc         1 WB2       0.125700
    105 H34        128.4640   127.8310    97.0490 ha         1 WB2       0.120500
    106 H35        126.9250   129.2300   100.0750 h1         1 WB2       0.033867
    107 H36        127.7810   129.5780    98.5610 h1         1 WB2       0.033867
    108 H37        126.7790   128.1110    98.7070 h1         1 WB2       0.033867
    109 H38        132.3340   125.4770    99.1130 ha         1 WB2       0.109500
    110 H39        132.0100   125.3900    96.6640 ha         1 WB2       0.141500
    111 H40        130.6190   125.6080   103.1800 ha         1 WB2       0.153000
    112 H41        130.8130   125.8780   105.7690 ha         1 WB2       0.126000
    113 H42        131.4870   128.3500   106.4660 h4         1 WB2       0.138500
    114 H43        121.2450   126.5980    98.7360 hn         1 WB2       0.145500
    115 H44        127.5730   126.1640    96.4700 hn         1 WB2       0.293500
    116 H45        129.6790   129.1380    96.1380 hn         1 WB2       0.293500
    117 H46        128.7200   134.4390    99.2810 hn         1 WB2       0.145500
    118 C42        129.4790   130.4290    94.5790 c          1 WB2       0.603200
@<TRIPOS>BOND
     1     1     2 1   
     2     1    72 1   
     3     1    73 1   
     4     1    74 1   
     5     2     3 1   
     6     2     4 1   
     7     2    75 1   
     8     3    76 1   
     9     3    77 1   
    10     3    78 1   
    11     4    52 1   
    12     4    56 2   
    13     5     6 ar  
    14     5     8 ar  
    15     5    52 1   
    16     6     7 ar  
    17     6    79 1   
    18     7    10 ar  
    19     7    80 1   
    20     8     9 ar  
    21     8    81 1   
    22     9    10 ar  
    23     9    82 1   
    24    10    11 1   
    25    11    53 1   
    26    11    57 2   
    27    12    13 1   
    28    12    14 1   
    29    12    39 1   
    30    12    53 1   
    31    13    58 1   
    32    13    59 1   
    33    14    15 1   
    34    14    27 1   
    35    14    83 1   
    36    15    16 ar  
    37    15    21 ar  
    38    16    17 ar  
    39    16    84 1   
    40    17    19 ar  
    41    17    60 1   
    42    18    60 1   
    43    18    85 1   
    44    18    86 1   
    45    18    87 1   
    46    19    20 ar  
    47    19    61 1   
    48    20    21 ar  
    49    20    88 1   
    50    21    89 1   
    51    22    23 1   
    52    22    61 1   
    53    22    62 2   
    54    23    24 2   
    55    23    70 1   
    56    24    25 1   
    57    24    90 1   
    58    25    26 2   
    59    25    91 1   
    60    26    70 1   
    61    26    92 1   
    62    27    28 1   
    63    27    39 1   
    64    27    54 1   
    65    28    63 1   
    66    28    64 1   
    67    29    30 ar  
    68    29    34 ar  
    69    29   118 1   
    70    30    31 ar  
    71    30    93 1   
    72    31    32 ar  
    73    31    94 1   
    74    32    33 ar  
    75    32    55 1   
    76    33    34 ar  
    77    33    95 1   
    78    34    96 1   
    79    35    36 1   
    80    35    55 1   
    81    35    66 2   
    82    36    37 1   
    83    36    38 1   
    84    36    97 1   
    85    37    98 1   
    86    37    99 1   
    87    37   100 1   
    88    38   101 1   
    89    38   102 1   
    90    38   103 1   
    91    39    40 1   
    92    39   104 1   
    93    40    41 ar  
    94    40    46 ar  
    95    41    42 ar  
    96    41   105 1   
    97    42    44 ar  
    98    42    67 1   
    99    43    67 1   
   100    43   106 1   
   101    43   107 1   
   102    43   108 1   
   103    44    45 ar  
   104    44    68 1   
   105    45    46 ar  
   106    45   109 1   
   107    46   110 1   
   108    47    48 1   
   109    47    68 1   
   110    47    69 2   
   111    48    49 2   
   112    48    71 1   
   113    49    50 1   
   114    49   111 1   
   115    50    51 2   
   116    50   112 1   
   117    51    71 1   
   118    51   113 1   
   119    52   114 1   
   120    53   115 1   
   121    54   116 1   
   122    54   118 1   
   123    55   117 1   
   124    65   118 2   
@<TRIPOS>SUBSTRUCTURE
     1 WB2         1 TEMP              0 ****  ****    0 ROOT
